
     RDKit          3D

 54 57  0  0  0  0  0  0  0  0999 V2000
   -3.7151   -4.0383    1.3193 C   0  0  0  0  0  0  0  0  0  0  0  0
   -3.4592   -3.2253    0.0953 C   0  0  0  0  0  0  0  0  0  0  0  0
   -3.8838   -3.5838   -1.0355 O   0  0  0  0  0  0  0  0  0  0  0  0
   -2.7296   -2.0176    0.2840 N   0  0  0  0  0  0  0  0  0  0  0  0
   -2.4638   -1.8297    1.6732 C   0  0  0  0  0  0  0  0  0  0  0  0
   -1.9324   -0.7856    2.1340 O   0  0  0  0  0  0  0  0  0  0  0  0
   -2.9726   -3.1618    2.7520 S   0  0  0  0  0  0  0  0  0  0  0  0
   -2.4844   -1.0548   -0.8082 C   0  0  0  0  0  0  0  0  0  0  0  0
   -3.6750   -0.0913   -1.0023 C   0  0  0  0  0  0  0  0  0  0  0  0
   -4.0685    0.6993    0.2538 C   0  0  0  0  0  0  0  0  0  0  0  0
   -5.0818    1.7589   -0.0854 C   0  0  0  0  0  0  0  0  0  0  0  0
   -6.4542    1.5073    0.0611 C   0  0  0  0  0  0  0  0  0  0  0  0
   -7.3755    2.4999   -0.2807 C   0  0  0  0  0  0  0  0  0  0  0  0
   -6.9426    3.6963   -0.7616 N   0  0  0  0  0  0  0  0  0  0  0  0
   -5.6193    3.9619   -0.9285 C   0  0  0  0  0  0  0  0  0  0  0  0
   -4.6650    2.9983   -0.5957 C   0  0  0  0  0  0  0  0  0  0  0  0
   -1.1392   -0.3203   -0.6842 C   0  0  0  0  0  0  0  0  0  0  0  0
   -0.0833   -1.2650   -0.5246 O   0  0  0  0  0  0  0  0  0  0  0  0
    1.2770   -0.9289   -0.4629 C   0  0  0  0  0  0  0  0  0  0  0  0
    1.7299    0.4042   -0.4844 C   0  0  0  0  0  0  0  0  0  0  0  0
    3.0991    0.6814   -0.4279 C   0  0  0  0  0  0  0  0  0  0  0  0
    4.0384   -0.3624   -0.3580 C   0  0  0  0  0  0  0  0  0  0  0  0
    3.5781   -1.6901   -0.3275 C   0  0  0  0  0  0  0  0  0  0  0  0
    2.2101   -1.9671   -0.3717 C   0  0  0  0  0  0  0  0  0  0  0  0
    5.4926   -0.0679   -0.3344 C   0  0  0  0  0  0  0  0  0  0  0  0
    5.9974    0.9848    0.4518 C   0  0  0  0  0  0  0  0  0  0  0  0
    7.3761    1.2664    0.4817 C   0  0  0  0  0  0  0  0  0  0  0  0
    8.2482    0.4793   -0.2875 C   0  0  0  0  0  0  0  0  0  0  0  0
    7.7548   -0.5668   -1.0678 C   0  0  0  0  0  0  0  0  0  0  0  0
    6.3878   -0.8441   -1.0890 C   0  0  0  0  0  0  0  0  0  0  0  0
    7.8883    2.3439    1.2869 N   0  0  0  0  0  4  0  0  0  0  0  0
    7.1158    3.0686    1.9476 O   0  0  0  0  0  0  0  0  0  0  0  0
    9.2394    2.5923    1.3465 O   0  0  0  0  0  1  0  0  0  0  0  0
   -3.2499   -5.0389    1.2094 H   0  0  0  0  0  0  0  0  0  0  0  0
   -4.8074   -4.1467    1.4766 H   0  0  0  0  0  0  0  0  0  0  0  0
   -2.4025   -1.6332   -1.7561 H   0  0  0  0  0  0  0  0  0  0  0  0
   -4.5561   -0.6802   -1.3311 H   0  0  0  0  0  0  0  0  0  0  0  0
   -3.4302    0.6123   -1.8282 H   0  0  0  0  0  0  0  0  0  0  0  0
   -3.1827    1.1901    0.6984 H   0  0  0  0  0  0  0  0  0  0  0  0
   -4.4906    0.0122    1.0188 H   0  0  0  0  0  0  0  0  0  0  0  0
   -6.8068    0.5562    0.4382 H   0  0  0  0  0  0  0  0  0  0  0  0
   -8.4363    2.3201   -0.1680 H   0  0  0  0  0  0  0  0  0  0  0  0
   -5.3070    4.9207   -1.3241 H   0  0  0  0  0  0  0  0  0  0  0  0
   -3.6128    3.2127   -0.7369 H   0  0  0  0  0  0  0  0  0  0  0  0
   -1.1342    0.3925    0.1608 H   0  0  0  0  0  0  0  0  0  0  0  0
   -0.9692    0.2643   -1.6147 H   0  0  0  0  0  0  0  0  0  0  0  0
    1.0325    1.2305   -0.5505 H   0  0  0  0  0  0  0  0  0  0  0  0
    3.4234    1.7126   -0.4689 H   0  0  0  0  0  0  0  0  0  0  0  0
    4.2740   -2.5157   -0.2510 H   0  0  0  0  0  0  0  0  0  0  0  0
    1.8731   -2.9965   -0.3448 H   0  0  0  0  0  0  0  0  0  0  0  0
    5.3193    1.5802    1.0495 H   0  0  0  0  0  0  0  0  0  0  0  0
    9.3113    0.6788   -0.2953 H   0  0  0  0  0  0  0  0  0  0  0  0
    8.4343   -1.1618   -1.6639 H   0  0  0  0  0  0  0  0  0  0  0  0
    6.0302   -1.6522   -1.7143 H   0  0  0  0  0  0  0  0  0  0  0  0
  1  2  1  0
  2  3  2  0
  2  4  1  0
  4  5  1  0
  5  6  2  0
  5  7  1  0
  4  8  1  0
  8  9  1  0
  9 10  1  0
 10 11  1  0
 11 12  2  0
 12 13  1  0
 13 14  2  0
 14 15  1  0
 15 16  2  0
  8 17  1  0
 17 18  1  0
 18 19  1  0
 19 20  2  0
 20 21  1  0
 21 22  2  0
 22 23  1  0
 23 24  2  0
 22 25  1  0
 25 26  2  0
 26 27  1  0
 27 28  2  0
 28 29  1  0
 29 30  2  0
 27 31  1  0
 31 32  2  0
 31 33  1  0
  7  1  1  0
 16 11  1  0
 24 19  1  0
 30 25  1  0
  1 34  1  0
  1 35  1  0
  8 36  1  0
  9 37  1  0
  9 38  1  0
 10 39  1  0
 10 40  1  0
 12 41  1  0
 13 42  1  0
 15 43  1  0
 16 44  1  0
 17 45  1  0
 17 46  1  0
 20 47  1  0
 21 48  1  0
 23 49  1  0
 24 50  1  0
 26 51  1  0
 28 52  1  0
 29 53  1  0
 30 54  1  0
M  CHG  2  31   1  33  -1
M  END

     RDKit          3D

 54 57  0  0  0  0  0  0  0  0999 V2000
   -3.7151   -4.0383    1.3193 C   0  0  0  0  0  0  0  0  0  0  0  0
   -3.4592   -3.2253    0.0953 C   0  0  0  0  0  0  0  0  0  0  0  0
   -3.8838   -3.5838   -1.0355 O   0  0  0  0  0  0  0  0  0  0  0  0
   -2.7296   -2.0176    0.2840 N   0  0  0  0  0  0  0  0  0  0  0  0
   -2.4638   -1.8297    1.6732 C   0  0  0  0  0  0  0  0  0  0  0  0
   -1.9324   -0.7856    2.1340 O   0  0  0  0  0  0  0  0  0  0  0  0
   -2.9726   -3.1618    2.7520 S   0  0  0  0  0  0  0  0  0  0  0  0
   -2.4844   -1.0548   -0.8082 C   0  0  0  0  0  0  0  0  0  0  0  0
   -3.6750   -0.0913   -1.0023 C   0  0  0  0  0  0  0  0  0  0  0  0
   -4.0685    0.6993    0.2538 C   0  0  0  0  0  0  0  0  0  0  0  0
   -5.0818    1.7589   -0.0854 C   0  0  0  0  0  0  0  0  0  0  0  0
   -6.4542    1.5073    0.0611 C   0  0  0  0  0  0  0  0  0  0  0  0
   -7.3755    2.4999   -0.2807 C   0  0  0  0  0  0  0  0  0  0  0  0
   -6.9426    3.6963   -0.7616 N   0  0  0  0  0  0  0  0  0  0  0  0
   -5.6193    3.9619   -0.9285 C   0  0  0  0  0  0  0  0  0  0  0  0
   -4.6650    2.9983   -0.5957 C   0  0  0  0  0  0  0  0  0  0  0  0
   -1.1392   -0.3203   -0.6842 C   0  0  0  0  0  0  0  0  0  0  0  0
   -0.0833   -1.2650   -0.5246 O   0  0  0  0  0  0  0  0  0  0  0  0
    1.2770   -0.9289   -0.4629 C   0  0  0  0  0  0  0  0  0  0  0  0
    1.7299    0.4042   -0.4844 C   0  0  0  0  0  0  0  0  0  0  0  0
    3.0991    0.6814   -0.4279 C   0  0  0  0  0  0  0  0  0  0  0  0
    4.0384   -0.3624   -0.3580 C   0  0  0  0  0  0  0  0  0  0  0  0
    3.5781   -1.6901   -0.3275 C   0  0  0  0  0  0  0  0  0  0  0  0
    2.2101   -1.9671   -0.3717 C   0  0  0  0  0  0  0  0  0  0  0  0
    5.4926   -0.0679   -0.3344 C   0  0  0  0  0  0  0  0  0  0  0  0
    5.9974    0.9848    0.4518 C   0  0  0  0  0  0  0  0  0  0  0  0
    7.3761    1.2664    0.4817 C   0  0  0  0  0  0  0  0  0  0  0  0
    8.2482    0.4793   -0.2875 C   0  0  0  0  0  0  0  0  0  0  0  0
    7.7548   -0.5668   -1.0678 C   0  0  0  0  0  0  0  0  0  0  0  0
    6.3878   -0.8441   -1.0890 C   0  0  0  0  0  0  0  0  0  0  0  0
    7.8883    2.3439    1.2869 N   0  0  0  0  0  4  0  0  0  0  0  0
    7.1158    3.0686    1.9476 O   0  0  0  0  0  0  0  0  0  0  0  0
    9.2394    2.5923    1.3465 O   0  0  0  0  0  1  0  0  0  0  0  0
   -3.2499   -5.0389    1.2094 H   0  0  0  0  0  0  0  0  0  0  0  0
   -4.8074   -4.1467    1.4766 H   0  0  0  0  0  0  0  0  0  0  0  0
   -2.4025   -1.6332   -1.7561 H   0  0  0  0  0  0  0  0  0  0  0  0
   -4.5561   -0.6802   -1.3311 H   0  0  0  0  0  0  0  0  0  0  0  0
   -3.4302    0.6123   -1.8282 H   0  0  0  0  0  0  0  0  0  0  0  0
   -3.1827    1.1901    0.6984 H   0  0  0  0  0  0  0  0  0  0  0  0
   -4.4906    0.0122    1.0188 H   0  0  0  0  0  0  0  0  0  0  0  0
   -6.8068    0.5562    0.4382 H   0  0  0  0  0  0  0  0  0  0  0  0
   -8.4363    2.3201   -0.1680 H   0  0  0  0  0  0  0  0  0  0  0  0
   -5.3070    4.9207   -1.3241 H   0  0  0  0  0  0  0  0  0  0  0  0
   -3.6128    3.2127   -0.7369 H   0  0  0  0  0  0  0  0  0  0  0  0
   -1.1342    0.3925    0.1608 H   0  0  0  0  0  0  0  0  0  0  0  0
   -0.9692    0.2643   -1.6147 H   0  0  0  0  0  0  0  0  0  0  0  0
    1.0325    1.2305   -0.5505 H   0  0  0  0  0  0  0  0  0  0  0  0
    3.4234    1.7126   -0.4689 H   0  0  0  0  0  0  0  0  0  0  0  0
    4.2740   -2.5157   -0.2510 H   0  0  0  0  0  0  0  0  0  0  0  0
    1.8731   -2.9965   -0.3448 H   0  0  0  0  0  0  0  0  0  0  0  0
    5.3193    1.5802    1.0495 H   0  0  0  0  0  0  0  0  0  0  0  0
    9.3113    0.6788   -0.2953 H   0  0  0  0  0  0  0  0  0  0  0  0
    8.4343   -1.1618   -1.6639 H   0  0  0  0  0  0  0  0  0  0  0  0
    6.0302   -1.6522   -1.7143 H   0  0  0  0  0  0  0  0  0  0  0  0
  1  2  1  0
  2  3  2  0
  2  4  1  0
  4  5  1  0
  5  6  2  0
  5  7  1  0
  4  8  1  0
  8  9  1  0
  9 10  1  0
 10 11  1  0
 11 12  2  0
 12 13  1  0
 13 14  2  0
 14 15  1  0
 15 16  2  0
  8 17  1  0
 17 18  1  0
 18 19  1  0
 19 20  2  0
 20 21  1  0
 21 22  2  0
 22 23  1  0
 23 24  2  0
 22 25  1  0
 25 26  2  0
 26 27  1  0
 27 28  2  0
 28 29  1  0
 29 30  2  0
 27 31  1  0
 31 32  2  0
 31 33  1  0
  7  1  1  0
 16 11  1  0
 24 19  1  0
 30 25  1  0
  1 34  1  0
  1 35  1  0
  8 36  1  0
  9 37  1  0
  9 38  1  0
 10 39  1  0
 10 40  1  0
 12 41  1  0
 13 42  1  0
 15 43  1  0
 16 44  1  0
 17 45  1  0
 17 46  1  0
 20 47  1  0
 21 48  1  0
 23 49  1  0
 24 50  1  0
 26 51  1  0
 28 52  1  0
 29 53  1  0
 30 54  1  0
M  CHG  2  31   1  33  -1
M  END

     RDKit          3D

 54 57  0  0  0  0  0  0  0  0999 V2000
   -4.7639   -3.0439    0.5100 C   0  0  0  0  0  0  0  0  0  0  0  0
   -3.7526   -2.0564    0.9980 C   0  0  0  0  0  0  0  0  0  0  0  0
   -3.4823   -1.9385    2.2163 O   0  0  0  0  0  0  0  0  0  0  0  0
   -3.1610   -1.2207    0.0022 N   0  0  0  0  0  0  0  0  0  0  0  0
   -3.7164   -1.5152   -1.2654 C   0  0  0  0  0  0  0  0  0  0  0  0
   -3.3221   -0.9911   -2.3444 O   0  0  0  0  0  0  0  0  0  0  0  0
   -5.0043   -2.7454   -1.2780 S   0  0  0  0  0  0  0  0  0  0  0  0
   -2.1906   -0.1495    0.2939 C   0  0  0  0  0  0  0  0  0  0  0  0
   -2.7459    1.2414   -0.1258 C   0  0  0  0  0  0  0  0  0  0  0  0
   -3.9640    1.6856    0.7107 C   0  0  0  0  0  0  0  0  0  0  0  0
   -5.2720    1.0796    0.2377 C   0  0  0  0  0  0  0  0  0  0  0  0
   -5.7747    1.4107   -1.0270 C   0  0  0  0  0  0  0  0  0  0  0  0
   -6.9887    0.8564   -1.4549 C   0  0  0  0  0  0  0  0  0  0  0  0
   -7.7024    0.0547   -0.6303 N   0  0  0  0  0  0  0  0  0  0  0  0
   -7.2569   -0.2655    0.6147 C   0  0  0  0  0  0  0  0  0  0  0  0
   -6.0371    0.2515    1.0762 C   0  0  0  0  0  0  0  0  0  0  0  0
   -0.8385   -0.4664   -0.3519 C   0  0  0  0  0  0  0  0  0  0  0  0
    0.0529    0.6302   -0.1658 O   0  0  0  0  0  0  0  0  0  0  0  0
    1.4594    0.5361   -0.1165 C   0  0  0  0  0  0  0  0  0  0  0  0
    2.2126    1.6385   -0.5527 C   0  0  0  0  0  0  0  0  0  0  0  0
    3.6046    1.6313   -0.4594 C   0  0  0  0  0  0  0  0  0  0  0  0
    4.2860    0.5161    0.0614 C   0  0  0  0  0  0  0  0  0  0  0  0
    3.5413   -0.6051    0.4698 C   0  0  0  0  0  0  0  0  0  0  0  0
    2.1384   -0.5877    0.4046 C   0  0  0  0  0  0  0  0  0  0  0  0
    5.7642    0.5449    0.2444 C   0  0  0  0  0  0  0  0  0  0  0  0
    6.5384   -0.6235    0.0409 C   0  0  0  0  0  0  0  0  0  0  0  0
    7.9275   -0.5977    0.2407 C   0  0  0  0  0  0  0  0  0  0  0  0
    8.5323    0.5921    0.6923 C   0  0  0  0  0  0  0  0  0  0  0  0
    7.7721    1.7331    0.9090 C   0  0  0  0  0  0  0  0  0  0  0  0
    6.3926    1.7183    0.6958 C   0  0  0  0  0  0  0  0  0  0  0  0
    8.7180   -1.7836    0.0391 N   0  0  0  0  0  4  0  0  0  0  0  0
    8.1867   -2.8622   -0.3067 O   0  0  0  0  0  0  0  0  0  0  0  0
   10.0837   -1.7502    0.2301 O   0  0  0  0  0  1  0  0  0  0  0  0
   -5.7349   -2.8955    1.0462 H   0  0  0  0  0  0  0  0  0  0  0  0
   -4.3914   -4.0790    0.6717 H   0  0  0  0  0  0  0  0  0  0  0  0
   -2.0097   -0.1099    1.3915 H   0  0  0  0  0  0  0  0  0  0  0  0
   -2.9794    1.2803   -1.2189 H   0  0  0  0  0  0  0  0  0  0  0  0
   -1.9592    2.0147    0.0316 H   0  0  0  0  0  0  0  0  0  0  0  0
   -4.0396    2.7953    0.6500 H   0  0  0  0  0  0  0  0  0  0  0  0
   -3.7758    1.4341    1.7784 H   0  0  0  0  0  0  0  0  0  0  0  0
   -5.2334    2.0605   -1.6965 H   0  0  0  0  0  0  0  0  0  0  0  0
   -7.3799    1.0902   -2.4387 H   0  0  0  0  0  0  0  0  0  0  0  0
   -7.8329   -0.9339    1.2473 H   0  0  0  0  0  0  0  0  0  0  0  0
   -5.6923   -0.0048    2.0617 H   0  0  0  0  0  0  0  0  0  0  0  0
   -0.4519   -1.3974    0.0911 H   0  0  0  0  0  0  0  0  0  0  0  0
   -0.9337   -0.6394   -1.4463 H   0  0  0  0  0  0  0  0  0  0  0  0
    1.7048    2.5182   -0.9300 H   0  0  0  0  0  0  0  0  0  0  0  0
    4.1514    2.5090   -0.7697 H   0  0  0  0  0  0  0  0  0  0  0  0
    4.0210   -1.4598    0.9378 H   0  0  0  0  0  0  0  0  0  0  0  0
    1.5953   -1.4475    0.7921 H   0  0  0  0  0  0  0  0  0  0  0  0
    6.0644   -1.5364   -0.3102 H   0  0  0  0  0  0  0  0  0  0  0  0
    9.5857    0.6362    0.8948 H   0  0  0  0  0  0  0  0  0  0  0  0
    8.2491    2.6370    1.2636 H   0  0  0  0  0  0  0  0  0  0  0  0
    5.8053    2.6103    0.9117 H   0  0  0  0  0  0  0  0  0  0  0  0
  1  2  1  0
  2  3  2  0
  2  4  1  0
  4  5  1  0
  5  6  2  0
  5  7  1  0
  4  8  1  0
  8  9  1  0
  9 10  1  0
 10 11  1  0
 11 12  2  0
 12 13  1  0
 13 14  2  0
 14 15  1  0
 15 16  2  0
  8 17  1  0
 17 18  1  0
 18 19  1  0
 19 20  2  0
 20 21  1  0
 21 22  2  0
 22 23  1  0
 23 24  2  0
 22 25  1  0
 25 26  2  0
 26 27  1  0
 27 28  2  0
 28 29  1  0
 29 30  2  0
 27 31  1  0
 31 32  2  0
 31 33  1  0
  7  1  1  0
 16 11  1  0
 24 19  1  0
 30 25  1  0
  1 34  1  0
  1 35  1  0
  8 36  1  0
  9 37  1  0
  9 38  1  0
 10 39  1  0
 10 40  1  0
 12 41  1  0
 13 42  1  0
 15 43  1  0
 16 44  1  0
 17 45  1  0
 17 46  1  0
 20 47  1  0
 21 48  1  0
 23 49  1  0
 24 50  1  0
 26 51  1  0
 28 52  1  0
 29 53  1  0
 30 54  1  0
M  CHG  2  31   1  33  -1
M  END

     RDKit          3D

 21 21  0  0  0  0  0  0  0  0999 V2000
    3.3591   -1.0781    0.6677 C   0  0  0  0  0  0  0  0  0  0  0  0
    1.9138   -0.8453    0.9486 C   0  0  0  0  0  0  0  0  0  0  0  0
    1.4119   -1.2802    2.0204 O   0  0  0  0  0  0  0  0  0  0  0  0
    1.1144   -0.2445   -0.0323 O   0  0  0  0  0  0  0  0  0  0  0  0
   -0.1857    0.2471    0.1677 C   0  0  0  0  0  0  0  0  0  0  0  0
   -0.5650    0.7983    1.4076 C   0  0  0  0  0  0  0  0  0  0  0  0
   -1.8526    1.2996    1.5984 C   0  0  0  0  0  0  0  0  0  0  0  0
   -2.7752    1.2689    0.5555 C   0  0  0  0  0  0  0  0  0  0  0  0
   -2.4116    0.7446   -0.6857 C   0  0  0  0  0  0  0  0  0  0  0  0
   -1.1162    0.2327   -0.9010 C   0  0  0  0  0  0  0  0  0  0  0  0
   -0.7648   -0.3179   -2.2371 C   0  0  0  0  0  0  0  0  0  0  0  0
   -1.6079   -0.2926   -3.1746 O   0  0  0  0  0  0  0  0  0  0  0  0
    0.4906   -0.8696   -2.4779 O   0  0  0  0  0  0  0  0  0  0  0  0
    3.9462   -1.0179    1.6085 H   0  0  0  0  0  0  0  0  0  0  0  0
    3.4908   -2.0833    0.2163 H   0  0  0  0  0  0  0  0  0  0  0  0
    3.7350   -0.3089   -0.0390 H   0  0  0  0  0  0  0  0  0  0  0  0
    0.1429    0.8701    2.2220 H   0  0  0  0  0  0  0  0  0  0  0  0
   -2.1327    1.7216    2.5551 H   0  0  0  0  0  0  0  0  0  0  0  0
   -3.7733    1.6601    0.7059 H   0  0  0  0  0  0  0  0  0  0  0  0
   -3.1487    0.7407   -1.4789 H   0  0  0  0  0  0  0  0  0  0  0  0
    0.7290   -1.2452   -3.3881 H   0  0  0  0  0  0  0  0  0  0  0  0
  1  2  1  0
  2  3  2  0
  2  4  1  0
  4  5  1  0
  5  6  2  0
  6  7  1  0
  7  8  2  0
  8  9  1  0
  9 10  2  0
 10 11  1  0
 11 12  2  0
 11 13  1  0
 10  5  1  0
  1 14  1  0
  1 15  1  0
  1 16  1  0
  6 17  1  0
  7 18  1  0
  8 19  1  0
  9 20  1  0
 13 21  1  0
M  END

     RDKit          3D

 44 46  0  0  0  0  0  0  0  0999 V2000
    4.2426    2.2852    1.2768 C   0  0  0  0  0  0  0  0  0  0  0  0
    3.0887    1.3846    1.0824 N   0  0  0  0  0  0  0  0  0  0  0  0
    2.6328    1.3444   -0.3121 C   0  0  1  0  0  0  0  0  0  0  0  0
    3.5859    0.3935   -1.0492 C   0  0  0  0  0  0  0  0  0  0  0  0
    4.1150   -0.5281    0.0502 C   0  0  0  0  0  0  0  0  0  0  0  0
    3.4285   -0.0211    1.3325 C   0  0  2  0  0  0  0  0  0  0  0  0
    2.0912   -0.7571    1.5803 C   0  0  0  0  0  0  0  0  0  0  0  0
    1.1427   -0.6334    0.3571 C   0  0  0  0  0  0  0  0  0  0  0  0
   -0.1935   -0.9463    0.7478 O   0  0  0  0  0  0  0  0  0  0  0  0
   -1.1505   -1.4520   -0.1448 C   0  0  0  0  0  0  0  0  0  0  0  0
   -0.8105   -1.8374   -1.3008 O   0  0  0  0  0  0  0  0  0  0  0  0
   -2.5937   -1.5035    0.2785 C   0  0  2  0  0  0  0  0  0  0  0  0
   -3.3106   -2.7745   -0.2158 C   0  0  0  0  0  0  0  0  0  0  0  0
   -2.6775   -3.9243    0.2747 O   0  0  0  0  0  0  0  0  0  0  0  0
   -3.3158   -0.2551   -0.1855 C   0  0  0  0  0  0  0  0  0  0  0  0
   -3.9380    0.5832    0.7580 C   0  0  0  0  0  0  0  0  0  0  0  0
   -4.6090    1.7346    0.3406 C   0  0  0  0  0  0  0  0  0  0  0  0
   -4.6681    2.0668   -1.0152 C   0  0  0  0  0  0  0  0  0  0  0  0
   -4.0557    1.2435   -1.9600 C   0  0  0  0  0  0  0  0  0  0  0  0
   -3.3873    0.0869   -1.5526 C   0  0  0  0  0  0  0  0  0  0  0  0
    1.1939    0.7740   -0.2976 C   0  0  0  0  0  0  0  0  0  0  0  0
    4.5217    2.3040    2.3530 H   0  0  0  0  0  0  0  0  0  0  0  0
    5.1292    1.9677    0.6920 H   0  0  0  0  0  0  0  0  0  0  0  0
    3.9687    3.3128    0.9823 H   0  0  0  0  0  0  0  0  0  0  0  0
    2.6239    2.3584   -0.7760 H   0  0  0  0  0  0  0  0  0  0  0  0
    4.4228    0.9725   -1.4937 H   0  0  0  0  0  0  0  0  0  0  0  0
    3.0762   -0.1791   -1.8575 H   0  0  0  0  0  0  0  0  0  0  0  0
    5.2158   -0.4164    0.1394 H   0  0  0  0  0  0  0  0  0  0  0  0
    3.8863   -1.5950   -0.1656 H   0  0  0  0  0  0  0  0  0  0  0  0
    4.0900   -0.1457    2.2238 H   0  0  0  0  0  0  0  0  0  0  0  0
    1.5980   -0.3171    2.4767 H   0  0  0  0  0  0  0  0  0  0  0  0
    2.2829   -1.8310    1.7969 H   0  0  0  0  0  0  0  0  0  0  0  0
    1.4827   -1.3808   -0.3885 H   0  0  0  0  0  0  0  0  0  0  0  0
   -2.6070   -1.5417    1.3910 H   0  0  0  0  0  0  0  0  0  0  0  0
   -3.3044   -2.8200   -1.3255 H   0  0  0  0  0  0  0  0  0  0  0  0
   -4.3768   -2.7575    0.1143 H   0  0  0  0  0  0  0  0  0  0  0  0
   -2.9590   -4.0200    1.2238 H   0  0  0  0  0  0  0  0  0  0  0  0
   -3.9073    0.3414    1.8137 H   0  0  0  0  0  0  0  0  0  0  0  0
   -5.0856    2.3686    1.0710 H   0  0  0  0  0  0  0  0  0  0  0  0
   -5.1825    2.9704   -1.3256 H   0  0  0  0  0  0  0  0  0  0  0  0
   -4.0985    1.4946   -3.0121 H   0  0  0  0  0  0  0  0  0  0  0  0
   -2.9306   -0.5409   -2.3086 H   0  0  0  0  0  0  0  0  0  0  0  0
    0.7897    0.7265   -1.3332 H   0  0  0  0  0  0  0  0  0  0  0  0
    0.5528    1.4642    0.2870 H   0  0  0  0  0  0  0  0  0  0  0  0
  1  2  1  0
  2  3  1  0
  3  4  1  0
  4  5  1  0
  5  6  1  0
  6  7  1  0
  7  8  1  0
  8  9  1  0
  9 10  1  0
 10 11  2  0
 10 12  1  0
 12 13  1  0
 13 14  1  0
 12 15  1  0
 15 16  2  0
 16 17  1  0
 17 18  2  0
 18 19  1  0
 19 20  2  0
  8 21  1  0
  6  2  1  0
 20 15  1  0
 21  3  1  0
  1 22  1  0
  1 23  1  0
  1 24  1  0
  3 25  1  6
  4 26  1  0
  4 27  1  0
  5 28  1  0
  5 29  1  0
  6 30  1  1
  7 31  1  0
  7 32  1  0
  8 33  1  0
 12 34  1  1
 13 35  1  0
 13 36  1  0
 14 37  1  0
 16 38  1  0
 17 39  1  0
 18 40  1  0
 19 41  1  0
 20 42  1  0
 21 43  1  0
 21 44  1  0
M  END

     RDKit          3D

 34 35  0  0  0  0  0  0  0  0999 V2000
   -0.7310    3.9880   -1.3767 C   0  0  0  0  0  0  0  0  0  0  0  0
   -0.2604    2.6491   -1.2613 O   0  0  0  0  0  0  0  0  0  0  0  0
   -1.0276    1.5695   -0.7906 C   0  0  0  0  0  0  0  0  0  0  0  0
   -2.3665    1.7384   -0.3849 C   0  0  0  0  0  0  0  0  0  0  0  0
   -3.1055    0.6585    0.0980 C   0  0  0  0  0  0  0  0  0  0  0  0
   -2.5203   -0.6075    0.1875 C   0  0  0  0  0  0  0  0  0  0  0  0
   -3.2348   -1.7039    0.6819 C   0  0  0  0  0  0  0  0  0  0  0  0
   -2.6118   -2.9477    0.7639 C   0  0  0  0  0  0  0  0  0  0  0  0
   -1.2832   -3.0658    0.3479 C   0  0  0  0  0  0  0  0  0  0  0  0
   -0.7003   -4.1795    0.4138 O   0  0  0  0  0  0  0  0  0  0  0  0
   -0.6280   -2.0069   -0.1193 O   0  0  0  0  0  0  0  0  0  0  0  0
   -1.1810   -0.7982   -0.2176 C   0  0  0  0  0  0  0  0  0  0  0  0
   -0.4351    0.2880   -0.7220 C   0  0  0  0  0  0  0  0  0  0  0  0
    1.0087    0.0951   -1.1267 C   0  0  0  0  0  0  0  0  0  0  0  0
    1.9133    0.4137    0.0395 C   0  0  0  0  0  0  0  0  0  0  0  0
    2.7839   -0.4508    0.6068 C   0  0  0  0  0  0  0  0  0  0  0  0
    3.6131    0.0286    1.7707 C   0  0  0  0  0  0  0  0  0  0  0  0
    2.9556   -1.8656    0.1063 C   0  0  0  0  0  0  0  0  0  0  0  0
   -1.5896    4.0321   -2.0798 H   0  0  0  0  0  0  0  0  0  0  0  0
   -1.0396    4.3715   -0.3822 H   0  0  0  0  0  0  0  0  0  0  0  0
    0.0869    4.6277   -1.7697 H   0  0  0  0  0  0  0  0  0  0  0  0
   -2.8481    2.7056   -0.4347 H   0  0  0  0  0  0  0  0  0  0  0  0
   -4.1315    0.8151    0.4094 H   0  0  0  0  0  0  0  0  0  0  0  0
   -4.2639   -1.5990    1.0048 H   0  0  0  0  0  0  0  0  0  0  0  0
   -3.1525   -3.8056    1.1447 H   0  0  0  0  0  0  0  0  0  0  0  0
    1.2661    0.7758   -1.9653 H   0  0  0  0  0  0  0  0  0  0  0  0
    1.1603   -0.9282   -1.5257 H   0  0  0  0  0  0  0  0  0  0  0  0
    1.8484    1.4235    0.4393 H   0  0  0  0  0  0  0  0  0  0  0  0
    4.2391    0.8897    1.4538 H   0  0  0  0  0  0  0  0  0  0  0  0
    2.9480    0.3473    2.6018 H   0  0  0  0  0  0  0  0  0  0  0  0
    4.2851   -0.7676    2.1527 H   0  0  0  0  0  0  0  0  0  0  0  0
    3.2792   -1.8554   -0.9563 H   0  0  0  0  0  0  0  0  0  0  0  0
    1.9998   -2.4214    0.1990 H   0  0  0  0  0  0  0  0  0  0  0  0
    3.7235   -2.4141    0.6908 H   0  0  0  0  0  0  0  0  0  0  0  0
  1  2  1  0
  2  3  1  0
  3  4  2  0
  4  5  1  0
  5  6  2  0
  6  7  1  0
  7  8  2  0
  8  9  1  0
  9 10  2  0
  9 11  1  0
 11 12  1  0
 12 13  2  0
 13 14  1  0
 14 15  1  0
 15 16  2  3
 16 17  1  0
 16 18  1  0
 13  3  1  0
 12  6  1  0
  1 19  1  0
  1 20  1  0
  1 21  1  0
  4 22  1  0
  5 23  1  0
  7 24  1  0
  8 25  1  0
 14 26  1  0
 14 27  1  0
 15 28  1  0
 17 29  1  0
 17 30  1  0
 17 31  1  0
 18 32  1  0
 18 33  1  0
 18 34  1  0
M  END

     RDKit          3D

 24 25  0  0  0  0  0  0  0  0999 V2000
   -2.7961   -1.3950    0.5884 C   0  0  0  0  0  0  0  0  0  0  0  0
   -1.6087   -0.5813    0.2783 N   0  0  0  0  0  0  0  0  0  0  0  0
   -0.3825   -1.1887    0.1282 C   0  0  0  0  0  0  0  0  0  0  0  0
   -0.2547   -2.4399    0.2282 O   0  0  0  0  0  0  0  0  0  0  0  0
    0.7210   -0.3857   -0.1286 C   0  0  0  0  0  0  0  0  0  0  0  0
    0.5871    0.9574   -0.2135 C   0  0  0  0  0  0  0  0  0  0  0  0
    1.7801    1.5443   -0.4395 N   0  0  0  0  0  0  0  0  0  0  0  0
    2.6320    0.4871   -0.4899 C   0  0  0  0  0  0  0  0  0  0  0  0
    2.0141   -0.7052   -0.3037 N   0  0  0  0  0  0  0  0  0  0  0  0
    2.6381   -2.0241   -0.2810 C   0  0  0  0  0  0  0  0  0  0  0  0
   -0.6130    1.5798   -0.0598 N   0  0  0  0  0  0  0  0  0  0  0  0
   -0.7107    3.0448   -0.1042 C   0  0  0  0  0  0  0  0  0  0  0  0
   -1.7152    0.7989    0.2166 C   0  0  0  0  0  0  0  0  0  0  0  0
   -2.8329    1.3516    0.4224 O   0  0  0  0  0  0  0  0  0  0  0  0
   -2.9134   -1.4773    1.6894 H   0  0  0  0  0  0  0  0  0  0  0  0
   -2.7138   -2.4140    0.1537 H   0  0  0  0  0  0  0  0  0  0  0  0
   -3.7144   -0.9436    0.1556 H   0  0  0  0  0  0  0  0  0  0  0  0
    3.6962    0.5926   -0.6572 H   0  0  0  0  0  0  0  0  0  0  0  0
    3.7267   -1.9422   -0.4865 H   0  0  0  0  0  0  0  0  0  0  0  0
    2.4978   -2.4874    0.7181 H   0  0  0  0  0  0  0  0  0  0  0  0
    2.1781   -2.6700   -1.0580 H   0  0  0  0  0  0  0  0  0  0  0  0
   -0.6686    3.4516    0.9280 H   0  0  0  0  0  0  0  0  0  0  0  0
   -1.6623    3.3596   -0.5835 H   0  0  0  0  0  0  0  0  0  0  0  0
    0.1150    3.4869   -0.7016 H   0  0  0  0  0  0  0  0  0  0  0  0
  1  2  1  0
  2  3  1  0
  3  4  2  0
  3  5  1  0
  5  6  2  0
  6  7  1  0
  7  8  2  0
  8  9  1  0
  9 10  1  0
  6 11  1  0
 11 12  1  0
 11 13  1  0
 13 14  2  0
 13  2  1  0
  9  5  1  0
  1 15  1  0
  1 16  1  0
  1 17  1  0
  8 18  1  0
 10 19  1  0
 10 20  1  0
 10 21  1  0
 12 22  1  0
 12 23  1  0
 12 24  1  0
M  END

     RDKit          3D

 17 17  0  0  0  0  0  0  0  0999 V2000
    2.1263   -1.2621   -1.9446 O   0  0  0  0  0  0  0  0  0  0  0  0
    1.9672   -0.3353   -1.1043 C   0  0  0  0  0  0  0  0  0  0  0  0
    3.0326    0.5201   -0.8369 O   0  0  0  0  0  0  0  0  0  0  0  0
    0.6608   -0.1666   -0.4160 C   0  0  0  0  0  0  0  0  0  0  0  0
   -0.3977   -1.0498   -0.7096 C   0  0  0  0  0  0  0  0  0  0  0  0
   -1.6383   -0.9171   -0.0789 C   0  0  0  0  0  0  0  0  0  0  0  0
   -2.6658   -1.8053   -0.3896 O   0  0  0  0  0  0  0  0  0  0  0  0
   -1.8379    0.1030    0.8562 C   0  0  0  0  0  0  0  0  0  0  0  0
   -0.8015    0.9863    1.1591 C   0  0  0  0  0  0  0  0  0  0  0  0
    0.4471    0.8616    0.5318 C   0  0  0  0  0  0  0  0  0  0  0  0
    1.4649    1.7591    0.8543 O   0  0  0  0  0  0  0  0  0  0  0  0
    3.9232    0.4054   -1.3059 H   0  0  0  0  0  0  0  0  0  0  0  0
   -0.2662   -1.8474   -1.4304 H   0  0  0  0  0  0  0  0  0  0  0  0
   -3.5765   -1.7364    0.0496 H   0  0  0  0  0  0  0  0  0  0  0  0
   -2.7957    0.2123    1.3489 H   0  0  0  0  0  0  0  0  0  0  0  0
   -0.9696    1.7717    1.8851 H   0  0  0  0  0  0  0  0  0  0  0  0
    1.3272    2.5007    1.5310 H   0  0  0  0  0  0  0  0  0  0  0  0
  1  2  2  0
  2  3  1  0
  2  4  1  0
  4  5  2  0
  5  6  1  0
  6  7  1  0
  6  8  2  0
  8  9  1  0
  9 10  2  0
 10 11  1  0
 10  4  1  0
  3 12  1  0
  5 13  1  0
  7 14  1  0
  8 15  1  0
  9 16  1  0
 11 17  1  0
M  END

     RDKit          3D

 30 34  0  0  0  0  0  0  0  0999 V2000
    2.4972   -2.9252    0.1159 O   0  0  0  0  0  0  0  0  0  0  0  0
    1.6574   -1.9846    0.0774 C   0  0  0  0  0  0  0  0  0  0  0  0
    0.2095   -2.2688    0.0303 C   0  0  0  0  0  0  0  0  0  0  0  0
   -0.2424   -3.6010    0.0283 C   0  0  0  0  0  0  0  0  0  0  0  0
   -1.6046   -3.8849   -0.0158 C   0  0  0  0  0  0  0  0  0  0  0  0
   -2.5289   -2.8465   -0.0583 C   0  0  0  0  0  0  0  0  0  0  0  0
   -2.0983   -1.5181   -0.0569 C   0  0  0  0  0  0  0  0  0  0  0  0
   -0.7210   -1.1982   -0.0127 C   0  0  0  0  0  0  0  0  0  0  0  0
   -0.2072    0.2207   -0.0094 C   0  0  0  0  0  0  0  0  0  0  0  0
   -1.0357    1.3650   -0.0498 C   0  0  0  0  0  0  0  0  0  0  0  0
   -0.5322    2.6315   -0.0452 C   0  0  0  0  0  0  0  0  0  0  0  0
    0.8269    2.8938   -0.0009 C   0  0  0  0  0  0  0  0  0  0  0  0
    1.7084    1.8018    0.0408 C   0  0  0  0  0  0  0  0  0  0  0  0
    3.0906    2.0188    0.0864 C   0  0  0  0  0  0  0  0  0  0  0  0
    3.9552    0.9273    0.1274 C   0  0  0  0  0  0  0  0  0  0  0  0
    3.4603   -0.3365    0.1231 N   0  0  0  0  0  0  0  0  0  0  0  0
    2.1242   -0.5942    0.0795 C   0  0  0  0  0  0  0  0  0  0  0  0
    1.1998    0.4669    0.0367 C   0  0  0  0  0  0  0  0  0  0  0  0
   -1.5606    3.5529   -0.0903 O   0  0  0  0  0  0  0  0  0  0  0  0
   -2.7957    2.8352   -0.1257 C   0  0  0  0  0  0  0  0  0  0  0  0
   -2.4160    1.4558   -0.0985 O   0  0  0  0  0  0  0  0  0  0  0  0
    0.4588   -4.4256    0.0608 H   0  0  0  0  0  0  0  0  0  0  0  0
   -1.9443   -4.9126   -0.0171 H   0  0  0  0  0  0  0  0  0  0  0  0
   -3.5875   -3.0709   -0.0925 H   0  0  0  0  0  0  0  0  0  0  0  0
   -2.8676   -0.7712   -0.0910 H   0  0  0  0  0  0  0  0  0  0  0  0
    1.1854    3.9161    0.0011 H   0  0  0  0  0  0  0  0  0  0  0  0
    3.4983    3.0228    0.0903 H   0  0  0  0  0  0  0  0  0  0  0  0
    5.0249    1.0848    0.1628 H   0  0  0  0  0  0  0  0  0  0  0  0
   -3.3456    3.0633   -1.0627 H   0  0  0  0  0  0  0  0  0  0  0  0
   -3.4090    3.0819    0.7661 H   0  0  0  0  0  0  0  0  0  0  0  0
  1  2  2  0
  2  3  1  0
  3  4  2  0
  4  5  1  0
  5  6  2  0
  6  7  1  0
  7  8  2  0
  8  9  1  0
  9 10  1  0
 10 11  2  0
 11 12  1  0
 12 13  2  0
 13 14  1  0
 14 15  2  0
 15 16  1  0
 16 17  2  0
 17 18  1  0
 11 19  1  0
 19 20  1  0
 20 21  1  0
 17  2  1  0
  8  3  1  0
 18  9  2  0
 21 10  1  0
 18 13  1  0
  4 22  1  0
  5 23  1  0
  6 24  1  0
  7 25  1  0
 12 26  1  0
 14 27  1  0
 15 28  1  0
 20 29  1  0
 20 30  1  0
M  END

     RDKit          3D

 34 37  0  0  0  0  0  0  0  0999 V2000
    5.3593   -0.3332    2.0622 C   0  0  0  0  0  0  0  0  0  0  0  0
    4.2321   -1.0837    1.6227 O   0  0  0  0  0  0  0  0  0  0  0  0
    3.2164   -0.5759    0.7996 C   0  0  0  0  0  0  0  0  0  0  0  0
    3.2266    0.7584    0.3158 C   0  0  0  0  0  0  0  0  0  0  0  0
    2.1884    1.2242   -0.5079 C   0  0  0  0  0  0  0  0  0  0  0  0
    1.1388    0.3558   -0.8153 C   0  0  0  0  0  0  0  0  0  0  0  0
    1.1412   -0.9347   -0.3699 C   0  0  0  0  0  0  0  0  0  0  0  0
    2.1581   -1.4306    0.4427 C   0  0  0  0  0  0  0  0  0  0  0  0
    0.0480   -1.6347   -0.8327 O   0  0  0  0  0  0  0  0  0  0  0  0
   -0.8245   -0.7747   -1.5681 C   0  0  1  0  0  0  0  0  0  0  0  0
   -2.1215   -0.6563   -0.7979 C   0  0  0  0  0  0  0  0  0  0  0  0
   -2.9653   -1.7720   -0.6817 C   0  0  0  0  0  0  0  0  0  0  0  0
   -4.0957   -1.7196    0.1394 C   0  0  0  0  0  0  0  0  0  0  0  0
   -4.3841   -0.5570    0.8667 C   0  0  0  0  0  0  0  0  0  0  0  0
   -5.5002   -0.4978    1.6982 O   0  0  0  0  0  0  0  0  0  0  0  0
   -3.5449    0.5563    0.7568 C   0  0  0  0  0  0  0  0  0  0  0  0
   -2.4286    0.5152   -0.0849 C   0  0  0  0  0  0  0  0  0  0  0  0
   -1.6255    1.6445   -0.2238 O   0  0  0  0  0  0  0  0  0  0  0  0
   -0.8349    1.8318   -1.3905 C   0  0  0  0  0  0  0  0  0  0  0  0
   -0.0263    0.5678   -1.7259 C   0  0  1  0  0  0  0  0  0  0  0  0
    5.9565    0.0054    1.1892 H   0  0  0  0  0  0  0  0  0  0  0  0
    5.9976   -0.9778    2.7005 H   0  0  0  0  0  0  0  0  0  0  0  0
    5.0261    0.5412    2.6603 H   0  0  0  0  0  0  0  0  0  0  0  0
    4.0337    1.4344    0.5623 H   0  0  0  0  0  0  0  0  0  0  0  0
    2.2090    2.2329   -0.8988 H   0  0  0  0  0  0  0  0  0  0  0  0
    2.1330   -2.4562    0.7880 H   0  0  0  0  0  0  0  0  0  0  0  0
   -1.0254   -1.2160   -2.5687 H   0  0  0  0  0  0  0  0  0  0  0  0
   -2.7347   -2.6886   -1.2106 H   0  0  0  0  0  0  0  0  0  0  0  0
   -4.7373   -2.5876    0.2219 H   0  0  0  0  0  0  0  0  0  0  0  0
   -6.1276   -1.2870    1.7989 H   0  0  0  0  0  0  0  0  0  0  0  0
   -3.7703    1.4593    1.3101 H   0  0  0  0  0  0  0  0  0  0  0  0
   -0.1680    2.7077   -1.2497 H   0  0  0  0  0  0  0  0  0  0  0  0
   -1.5104    2.0596   -2.2434 H   0  0  0  0  0  0  0  0  0  0  0  0
    0.3605    0.6507   -2.7656 H   0  0  0  0  0  0  0  0  0  0  0  0
  1  2  1  0
  2  3  1  0
  3  4  2  0
  4  5  1  0
  5  6  2  0
  6  7  1  0
  7  8  2  0
  7  9  1  0
  9 10  1  0
 10 11  1  0
 11 12  2  0
 12 13  1  0
 13 14  2  0
 14 15  1  0
 14 16  1  0
 16 17  2  0
 17 18  1  0
 18 19  1  0
 19 20  1  0
  8  3  1  0
 20 10  1  0
 20  6  1  0
 17 11  1  0
  1 21  1  0
  1 22  1  0
  1 23  1  0
  4 24  1  0
  5 25  1  0
  8 26  1  0
 10 27  1  6
 12 28  1  0
 13 29  1  0
 15 30  1  0
 16 31  1  0
 19 32  1  0
 19 33  1  0
 20 34  1  6
M  END

     RDKit          3D

 17 17  0  0  0  0  0  0  0  0999 V2000
   -3.0437    1.6582    0.0840 O   0  0  0  0  0  0  0  0  0  0  0  0
   -2.4905    0.5573   -0.1843 C   0  0  0  0  0  0  0  0  0  0  0  0
   -3.2705   -0.5053   -0.6336 O   0  0  0  0  0  0  0  0  0  0  0  0
   -1.0284    0.3943   -0.0241 C   0  0  0  0  0  0  0  0  0  0  0  0
   -0.2343    1.4602    0.4282 C   0  0  0  0  0  0  0  0  0  0  0  0
    1.1446    1.3003    0.5773 C   0  0  0  0  0  0  0  0  0  0  0  0
    1.7589    0.0793    0.2798 C   0  0  0  0  0  0  0  0  0  0  0  0
    3.1416   -0.0144    0.4504 O   0  0  0  0  0  0  0  0  0  0  0  0
    0.9691   -1.0021   -0.1768 C   0  0  0  0  0  0  0  0  0  0  0  0
    1.5104   -2.2498   -0.4933 O   0  0  0  0  0  0  0  0  0  0  0  0
   -0.4138   -0.8329   -0.3235 C   0  0  0  0  0  0  0  0  0  0  0  0
   -4.2722   -0.4042   -0.7466 H   0  0  0  0  0  0  0  0  0  0  0  0
   -0.6775    2.4188    0.6674 H   0  0  0  0  0  0  0  0  0  0  0  0
    1.7419    2.1329    0.9273 H   0  0  0  0  0  0  0  0  0  0  0  0
    3.6783   -0.8491    0.2640 H   0  0  0  0  0  0  0  0  0  0  0  0
    2.4923   -2.4740   -0.4220 H   0  0  0  0  0  0  0  0  0  0  0  0
   -1.0061   -1.6693   -0.6740 H   0  0  0  0  0  0  0  0  0  0  0  0
  1  2  2  0
  2  3  1  0
  2  4  1  0
  4  5  2  0
  5  6  1  0
  6  7  2  0
  7  8  1  0
  7  9  1  0
  9 10  1  0
  9 11  2  0
 11  4  1  0
  3 12  1  0
  5 13  1  0
  6 14  1  0
  8 15  1  0
 10 16  1  0
 11 17  1  0
M  END

     RDKit          3D

 32 34  0  0  0  0  0  0  0  0999 V2000
    3.8449   -0.6511   -3.0403 C   0  0  0  0  0  0  0  0  0  0  0  0
    3.4080   -0.1532   -1.7805 O   0  0  0  0  0  0  0  0  0  0  0  0
    2.0815   -0.1998   -1.3221 C   0  0  0  0  0  0  0  0  0  0  0  0
    1.0546   -0.8009   -2.0736 C   0  0  0  0  0  0  0  0  0  0  0  0
   -0.2543   -0.8341   -1.5925 C   0  0  0  0  0  0  0  0  0  0  0  0
   -0.5657   -0.2756   -0.3454 C   0  0  0  0  0  0  0  0  0  0  0  0
   -1.8821   -0.3373    0.1743 C   0  0  0  0  0  0  0  0  0  0  0  0
   -2.9116   -0.9423   -0.5560 O   0  0  0  0  0  0  0  0  0  0  0  0
   -3.6219   -2.0802   -0.0778 C   0  0  0  0  0  0  0  0  0  0  0  0
   -2.1005    0.2376    1.4292 C   0  0  0  0  0  0  0  0  0  0  0  0
   -3.2364    0.4166    2.1894 C   0  0  0  0  0  0  0  0  0  0  0  0
   -2.7986    1.0768    3.3340 C   0  0  0  0  0  0  0  0  0  0  0  0
   -1.4979    1.2956    3.2708 O   0  0  0  0  0  0  0  0  0  0  0  0
   -1.0791    0.8054    2.1324 C   0  0  0  0  0  0  0  0  0  0  0  0
    0.1877    0.8568    1.6583 N   0  0  0  0  0  0  0  0  0  0  0  0
    0.4707    0.3412    0.4243 C   0  0  0  0  0  0  0  0  0  0  0  0
    1.7871    0.3854   -0.0807 C   0  0  0  0  0  0  0  0  0  0  0  0
    2.8356    0.9790    0.6359 O   0  0  0  0  0  0  0  0  0  0  0  0
    2.8057    2.3307    1.0935 C   0  0  0  0  0  0  0  0  0  0  0  0
    3.6490   -1.7428   -3.1097 H   0  0  0  0  0  0  0  0  0  0  0  0
    4.9354   -0.4732   -3.1417 H   0  0  0  0  0  0  0  0  0  0  0  0
    3.3253   -0.1152   -3.8619 H   0  0  0  0  0  0  0  0  0  0  0  0
    1.2592   -1.2483   -3.0368 H   0  0  0  0  0  0  0  0  0  0  0  0
   -1.0193   -1.3089   -2.1946 H   0  0  0  0  0  0  0  0  0  0  0  0
   -4.2049   -1.8338    0.8265 H   0  0  0  0  0  0  0  0  0  0  0  0
   -4.3242   -2.4260   -0.8590 H   0  0  0  0  0  0  0  0  0  0  0  0
   -2.9112   -2.8999    0.1528 H   0  0  0  0  0  0  0  0  0  0  0  0
   -4.2528    0.1395    1.9506 H   0  0  0  0  0  0  0  0  0  0  0  0
   -3.4256    1.3814    4.1616 H   0  0  0  0  0  0  0  0  0  0  0  0
    2.0669    2.4688    1.9052 H   0  0  0  0  0  0  0  0  0  0  0  0
    2.5653    3.0087    0.2478 H   0  0  0  0  0  0  0  0  0  0  0  0
    3.8090    2.5990    1.4859 H   0  0  0  0  0  0  0  0  0  0  0  0
  1  2  1  0
  2  3  1  0
  3  4  2  0
  4  5  1  0
  5  6  2  0
  6  7  1  0
  7  8  1  0
  8  9  1  0
  7 10  2  0
 10 11  1  0
 11 12  2  0
 12 13  1  0
 13 14  1  0
 14 15  2  0
 15 16  1  0
 16 17  2  0
 17 18  1  0
 18 19  1  0
 17  3  1  0
 16  6  1  0
 14 10  1  0
  1 20  1  0
  1 21  1  0
  1 22  1  0
  4 23  1  0
  5 24  1  0
  9 25  1  0
  9 26  1  0
  9 27  1  0
 11 28  1  0
 12 29  1  0
 19 30  1  0
 19 31  1  0
 19 32  1  0
M  END

     RDKit          3D

 18 19  0  0  0  0  0  0  0  0999 V2000
   -3.2905    2.1056   -0.6405 O   0  0  0  0  0  0  0  0  0  0  0  0
   -2.4064    1.2338   -0.4341 C   0  0  0  0  0  0  0  0  0  0  0  0
   -2.7770   -0.0956   -0.2036 C   0  0  0  0  0  0  0  0  0  0  0  0
   -1.7814   -1.0455    0.0228 C   0  0  0  0  0  0  0  0  0  0  0  0
   -0.4406   -0.6492    0.0144 C   0  0  0  0  0  0  0  0  0  0  0  0
    0.5976   -1.5647    0.2365 C   0  0  0  0  0  0  0  0  0  0  0  0
    1.9265   -1.1291    0.2201 C   0  0  0  0  0  0  0  0  0  0  0  0
    2.2270    0.2177   -0.0170 C   0  0  0  0  0  0  0  0  0  0  0  0
    3.5569    0.6321   -0.0294 O   0  0  0  0  0  0  0  0  0  0  0  0
    1.1909    1.1369   -0.2397 C   0  0  0  0  0  0  0  0  0  0  0  0
   -0.1415    0.7104   -0.2252 C   0  0  0  0  0  0  0  0  0  0  0  0
   -1.1226    1.5845   -0.4368 O   0  0  0  0  0  0  0  0  0  0  0  0
   -3.8199   -0.3878   -0.2001 H   0  0  0  0  0  0  0  0  0  0  0  0
   -2.0560   -2.0780    0.2025 H   0  0  0  0  0  0  0  0  0  0  0  0
    0.3825   -2.6103    0.4215 H   0  0  0  0  0  0  0  0  0  0  0  0
    2.7254   -1.8392    0.3921 H   0  0  0  0  0  0  0  0  0  0  0  0
    3.8087    1.5991   -0.1979 H   0  0  0  0  0  0  0  0  0  0  0  0
    1.4205    2.1792   -0.4234 H   0  0  0  0  0  0  0  0  0  0  0  0
  1  2  2  0
  2  3  1  0
  3  4  2  0
  4  5  1  0
  5  6  2  0
  6  7  1  0
  7  8  2  0
  8  9  1  0
  8 10  1  0
 10 11  2  0
 11 12  1  0
 12  2  1  0
 11  5  1  0
  3 13  1  0
  4 14  1  0
  6 15  1  0
  7 16  1  0
  9 17  1  0
 10 18  1  0
M  END

     RDKit          3D

 39 41  0  0  0  0  0  0  0  0999 V2000
    3.1769   -3.4700   -0.1459 C   0  0  0  0  0  0  0  0  0  0  0  0
    3.4371   -2.0825    0.0506 O   0  0  0  0  0  0  0  0  0  0  0  0
    2.4479   -1.0863    0.0858 C   0  0  0  0  0  0  0  0  0  0  0  0
    1.0878   -1.3809   -0.1035 C   0  0  0  0  0  0  0  0  0  0  0  0
    0.1248   -0.3756   -0.0164 C   0  0  0  0  0  0  0  0  0  0  0  0
   -1.1566   -0.6929   -0.1750 O   0  0  0  0  0  0  0  0  0  0  0  0
   -2.1517    0.1902   -0.1012 C   0  0  0  0  0  0  0  0  0  0  0  0
   -3.5496   -0.2965   -0.2973 C   0  0  0  0  0  0  0  0  0  0  0  0
   -4.6308    0.5805   -0.5469 C   0  0  0  0  0  0  0  0  0  0  0  0
   -5.9244    0.0798   -0.7287 C   0  0  0  0  0  0  0  0  0  0  0  0
   -6.1605   -1.2948   -0.6826 C   0  0  0  0  0  0  0  0  0  0  0  0
   -5.1012   -2.1753   -0.4532 C   0  0  0  0  0  0  0  0  0  0  0  0
   -3.8067   -1.6834   -0.2654 C   0  0  0  0  0  0  0  0  0  0  0  0
   -1.8491    1.5366    0.1710 C   0  0  0  0  0  0  0  0  0  0  0  0
   -0.5174    1.9219    0.3316 C   0  0  0  0  0  0  0  0  0  0  0  0
   -0.2612    3.1320    0.5733 O   0  0  0  0  0  0  0  0  0  0  0  0
    0.5086    0.9582    0.2363 C   0  0  0  0  0  0  0  0  0  0  0  0
    1.8825    1.2721    0.3712 C   0  0  0  0  0  0  0  0  0  0  0  0
    2.2787    2.6064    0.5194 O   0  0  0  0  0  0  0  0  0  0  0  0
    3.1331    3.2586   -0.4167 C   0  0  0  0  0  0  0  0  0  0  0  0
    2.8420    0.2345    0.3407 C   0  0  0  0  0  0  0  0  0  0  0  0
    4.1989    0.4879    0.5687 O   0  0  0  0  0  0  0  0  0  0  0  0
    4.6794    1.0170    1.8034 C   0  0  0  0  0  0  0  0  0  0  0  0
    2.7088   -3.6407   -1.1425 H   0  0  0  0  0  0  0  0  0  0  0  0
    4.1384   -4.0249   -0.1039 H   0  0  0  0  0  0  0  0  0  0  0  0
    2.5074   -3.8490    0.6600 H   0  0  0  0  0  0  0  0  0  0  0  0
    0.7602   -2.3937   -0.2971 H   0  0  0  0  0  0  0  0  0  0  0  0
   -4.4932    1.6491   -0.6252 H   0  0  0  0  0  0  0  0  0  0  0  0
   -6.7450    0.7601   -0.9175 H   0  0  0  0  0  0  0  0  0  0  0  0
   -7.1608   -1.6787   -0.8374 H   0  0  0  0  0  0  0  0  0  0  0  0
   -5.2806   -3.2414   -0.4230 H   0  0  0  0  0  0  0  0  0  0  0  0
   -3.0071   -2.3919   -0.0926 H   0  0  0  0  0  0  0  0  0  0  0  0
   -2.6211    2.2856    0.2874 H   0  0  0  0  0  0  0  0  0  0  0  0
    4.1508    2.8191   -0.3991 H   0  0  0  0  0  0  0  0  0  0  0  0
    3.2000    4.3344   -0.1530 H   0  0  0  0  0  0  0  0  0  0  0  0
    2.7064    3.1727   -1.4373 H   0  0  0  0  0  0  0  0  0  0  0  0
    4.4926    0.2918    2.6203 H   0  0  0  0  0  0  0  0  0  0  0  0
    4.1852    1.9821    2.0441 H   0  0  0  0  0  0  0  0  0  0  0  0
    5.7695    1.1879    1.7226 H   0  0  0  0  0  0  0  0  0  0  0  0
  1  2  1  0
  2  3  1  0
  3  4  2  0
  4  5  1  0
  5  6  1  0
  6  7  1  0
  7  8  1  0
  8  9  2  0
  9 10  1  0
 10 11  2  0
 11 12  1  0
 12 13  2  0
  7 14  2  0
 14 15  1  0
 15 16  2  0
 15 17  1  0
 17 18  1  0
 18 19  1  0
 19 20  1  0
 18 21  2  0
 21 22  1  0
 22 23  1  0
 21  3  1  0
 17  5  2  0
 13  8  1  0
  1 24  1  0
  1 25  1  0
  1 26  1  0
  4 27  1  0
  9 28  1  0
 10 29  1  0
 11 30  1  0
 12 31  1  0
 13 32  1  0
 14 33  1  0
 20 34  1  0
 20 35  1  0
 20 36  1  0
 23 37  1  0
 23 38  1  0
 23 39  1  0
M  END

     RDKit          3D

 21 21  0  0  0  0  0  0  0  0999 V2000
    3.9795    0.2517   -2.5565 O   0  0  0  0  0  0  0  0  0  0  0  0
    3.5231   -0.0066   -1.4112 C   0  0  0  0  0  0  0  0  0  0  0  0
    4.3962   -0.3573   -0.3843 O   0  0  0  0  0  0  0  0  0  0  0  0
    2.0721    0.0651   -1.1780 C   0  0  0  0  0  0  0  0  0  0  0  0
    1.5353   -0.1769    0.0256 C   0  0  0  0  0  0  0  0  0  0  0  0
    0.0805   -0.1045    0.3091 C   0  0  0  0  0  0  0  0  0  0  0  0
   -0.3370    0.0657    1.6392 C   0  0  0  0  0  0  0  0  0  0  0  0
   -1.6963    0.1309    1.9554 C   0  0  0  0  0  0  0  0  0  0  0  0
   -2.6613    0.0153    0.9477 C   0  0  0  0  0  0  0  0  0  0  0  0
   -4.0183    0.0814    1.2587 O   0  0  0  0  0  0  0  0  0  0  0  0
   -2.2611   -0.1721   -0.3805 C   0  0  0  0  0  0  0  0  0  0  0  0
   -3.2252   -0.2987   -1.3793 O   0  0  0  0  0  0  0  0  0  0  0  0
   -0.8963   -0.2359   -0.6989 C   0  0  0  0  0  0  0  0  0  0  0  0
    5.3951   -0.4071   -0.5454 H   0  0  0  0  0  0  0  0  0  0  0  0
    1.4484    0.3492   -2.0144 H   0  0  0  0  0  0  0  0  0  0  0  0
    2.1934   -0.3978    0.8582 H   0  0  0  0  0  0  0  0  0  0  0  0
    0.3919    0.1577    2.4355 H   0  0  0  0  0  0  0  0  0  0  0  0
   -1.9986    0.2707    2.9856 H   0  0  0  0  0  0  0  0  0  0  0  0
   -4.3380    0.2150    2.2110 H   0  0  0  0  0  0  0  0  0  0  0  0
   -2.9689   -0.4361   -2.3500 H   0  0  0  0  0  0  0  0  0  0  0  0
   -0.6144   -0.4122   -1.7275 H   0  0  0  0  0  0  0  0  0  0  0  0
  1  2  2  0
  2  3  1  0
  2  4  1  0
  4  5  2  0
  5  6  1  0
  6  7  2  0
  7  8  1  0
  8  9  2  0
  9 10  1  0
  9 11  1  0
 11 12  1  0
 11 13  2  0
 13  6  1  0
  3 14  1  0
  4 15  1  0
  5 16  1  0
  7 17  1  0
  8 18  1  0
 10 19  1  0
 12 20  1  0
 13 21  1  0
M  END

     RDKit          3D

 22 23  0  0  0  0  0  0  0  0999 V2000
    3.5452   -0.6816    0.0161 C   0  0  0  0  0  0  0  0  0  0  0  0
    2.1192   -0.2035   -0.0158 C   0  0  0  0  0  0  0  0  0  0  0  0
    1.8519    1.1109    0.0087 C   0  0  0  0  0  0  0  0  0  0  0  0
    0.4677    1.6164    0.0104 C   0  0  0  0  0  0  0  0  0  0  0  0
    0.2771    2.8618    0.0248 O   0  0  0  0  0  0  0  0  0  0  0  0
   -0.6743    0.6647   -0.0030 C   0  0  0  0  0  0  0  0  0  0  0  0
   -2.0183    1.1043   -0.0093 C   0  0  0  0  0  0  0  0  0  0  0  0
   -2.3238    2.4654   -0.0065 O   0  0  0  0  0  0  0  0  0  0  0  0
   -3.0592    0.1657   -0.0188 C   0  0  0  0  0  0  0  0  0  0  0  0
   -2.7790   -1.2000   -0.0217 C   0  0  0  0  0  0  0  0  0  0  0  0
   -1.4572   -1.6441   -0.0157 C   0  0  0  0  0  0  0  0  0  0  0  0
   -0.3976   -0.7211   -0.0068 C   0  0  0  0  0  0  0  0  0  0  0  0
    1.0104   -1.1871   -0.0006 C   0  0  0  0  0  0  0  0  0  0  0  0
    1.2692   -2.4216    0.0205 O   0  0  0  0  0  0  0  0  0  0  0  0
    4.2477    0.1054   -0.3334 H   0  0  0  0  0  0  0  0  0  0  0  0
    3.8145   -0.9690    1.0539 H   0  0  0  0  0  0  0  0  0  0  0  0
    3.6693   -1.5628   -0.6479 H   0  0  0  0  0  0  0  0  0  0  0  0
    2.6624    1.8305    0.0274 H   0  0  0  0  0  0  0  0  0  0  0  0
   -3.2816    2.7965   -0.0110 H   0  0  0  0  0  0  0  0  0  0  0  0
   -4.0902    0.4960   -0.0237 H   0  0  0  0  0  0  0  0  0  0  0  0
   -3.5896   -1.9172   -0.0289 H   0  0  0  0  0  0  0  0  0  0  0  0
   -1.2643   -2.7096   -0.0186 H   0  0  0  0  0  0  0  0  0  0  0  0
  1  2  1  0
  2  3  2  0
  3  4  1  0
  4  5  2  0
  4  6  1  0
  6  7  2  0
  7  8  1  0
  7  9  1  0
  9 10  2  0
 10 11  1  0
 11 12  2  0
 12 13  1  0
 13 14  2  0
 13  2  1  0
 12  6  1  0
  1 15  1  0
  1 16  1  0
  1 17  1  0
  3 18  1  0
  8 19  1  0
  9 20  1  0
 10 21  1  0
 11 22  1  0
M  END

     RDKit          3D

 23 24  0  0  0  0  0  0  0  0999 V2000
    3.4937   -1.2596   -0.2375 C   0  0  0  0  0  0  0  0  0  0  0  0
    2.8649    0.0127   -0.3546 O   0  0  0  0  0  0  0  0  0  0  0  0
    1.4773    0.2241   -0.3100 C   0  0  0  0  0  0  0  0  0  0  0  0
    0.5687   -0.8385   -0.1406 C   0  0  0  0  0  0  0  0  0  0  0  0
   -0.8088   -0.5903   -0.1008 C   0  0  0  0  0  0  0  0  0  0  0  0
   -1.7311   -1.6289    0.0664 C   0  0  0  0  0  0  0  0  0  0  0  0
   -3.0935   -1.3370    0.1004 C   0  0  0  0  0  0  0  0  0  0  0  0
   -3.5038   -0.0074   -0.0343 C   0  0  0  0  0  0  0  0  0  0  0  0
   -4.7294    0.2782   -0.0064 O   0  0  0  0  0  0  0  0  0  0  0  0
   -2.6055    0.9611   -0.1922 O   0  0  0  0  0  0  0  0  0  0  0  0
   -1.2945    0.7283   -0.2305 C   0  0  0  0  0  0  0  0  0  0  0  0
   -0.3914    1.7899   -0.3995 C   0  0  0  0  0  0  0  0  0  0  0  0
   -0.8468    3.1027   -0.5300 O   0  0  0  0  0  0  0  0  0  0  0  0
    0.9877    1.5384   -0.4390 C   0  0  0  0  0  0  0  0  0  0  0  0
    1.8633    2.6121   -0.6080 O   0  0  0  0  0  0  0  0  0  0  0  0
    4.5928   -1.1283   -0.3078 H   0  0  0  0  0  0  0  0  0  0  0  0
    3.2526   -1.7158    0.7458 H   0  0  0  0  0  0  0  0  0  0  0  0
    3.1624   -1.9267   -1.0613 H   0  0  0  0  0  0  0  0  0  0  0  0
    0.9254   -1.8554   -0.0398 H   0  0  0  0  0  0  0  0  0  0  0  0
   -1.4014   -2.6558    0.1698 H   0  0  0  0  0  0  0  0  0  0  0  0
   -3.8185   -2.1312    0.2293 H   0  0  0  0  0  0  0  0  0  0  0  0
   -1.8323    3.3365   -0.5080 H   0  0  0  0  0  0  0  0  0  0  0  0
    2.8682    2.4910   -0.6441 H   0  0  0  0  0  0  0  0  0  0  0  0
  1  2  1  0
  2  3  1  0
  3  4  2  0
  4  5  1  0
  5  6  1  0
  6  7  2  0
  7  8  1  0
  8  9  2  0
  8 10  1  0
 10 11  1  0
 11 12  1  0
 12 13  1  0
 12 14  2  0
 14 15  1  0
 14  3  1  0
 11  5  2  0
  1 16  1  0
  1 17  1  0
  1 18  1  0
  4 19  1  0
  6 20  1  0
  7 21  1  0
 13 22  1  0
 15 23  1  0
M  END

     RDKit          3D

 35 37  0  0  0  0  0  0  0  0999 V2000
   -3.8394    3.2948   -0.0137 O   0  0  0  0  0  0  0  0  0  0  0  0
   -3.2103    2.0510   -0.0296 C   0  0  0  0  0  0  0  0  0  0  0  0
   -3.7561    0.9837   -0.7531 C   0  0  0  0  0  0  0  0  0  0  0  0
   -3.1286   -0.2672   -0.7627 C   0  0  0  0  0  0  0  0  0  0  0  0
   -3.7035   -1.2845   -1.5309 O   0  0  0  0  0  0  0  0  0  0  0  0
   -1.9451   -0.4654   -0.0110 C   0  0  0  0  0  0  0  0  0  0  0  0
   -1.3817    0.6258    0.6838 C   0  0  0  0  0  0  0  0  0  0  0  0
   -2.0208    1.8697    0.6804 C   0  0  0  0  0  0  0  0  0  0  0  0
   -0.1919    0.4812    1.4041 O   0  0  0  0  0  0  0  0  0  0  0  0
    0.6603   -0.6584    1.2791 C   0  0  2  0  0  0  0  0  0  0  0  0
    1.7042   -0.3885    0.2007 C   0  0  0  0  0  0  0  0  0  0  0  0
    1.9391   -1.2373   -0.8996 C   0  0  0  0  0  0  0  0  0  0  0  0
    2.9216   -0.9206   -1.8422 C   0  0  0  0  0  0  0  0  0  0  0  0
    3.7075    0.2258   -1.6953 C   0  0  0  0  0  0  0  0  0  0  0  0
    4.6870    0.5066   -2.6477 O   0  0  0  0  0  0  0  0  0  0  0  0
    3.5082    1.0655   -0.5904 C   0  0  0  0  0  0  0  0  0  0  0  0
    4.3076    2.1956   -0.4182 O   0  0  0  0  0  0  0  0  0  0  0  0
    2.5081    0.7587    0.3450 C   0  0  0  0  0  0  0  0  0  0  0  0
   -0.1931   -1.9428    1.1337 C   0  0  1  0  0  0  0  0  0  0  0  0
   -0.7976   -2.2573    2.3655 O   0  0  0  0  0  0  0  0  0  0  0  0
   -1.2694   -1.8168    0.0303 C   0  0  0  0  0  0  0  0  0  0  0  0
   -4.6996    3.4615   -0.5226 H   0  0  0  0  0  0  0  0  0  0  0  0
   -4.6729    1.1225   -1.3103 H   0  0  0  0  0  0  0  0  0  0  0  0
   -3.2852   -2.2018   -1.6412 H   0  0  0  0  0  0  0  0  0  0  0  0
   -1.5877    2.6967    1.2314 H   0  0  0  0  0  0  0  0  0  0  0  0
    1.2242   -0.7559    2.2339 H   0  0  0  0  0  0  0  0  0  0  0  0
    1.3907   -2.1546   -1.0441 H   0  0  0  0  0  0  0  0  0  0  0  0
    3.0801   -1.5790   -2.6859 H   0  0  0  0  0  0  0  0  0  0  0  0
    5.2902    1.3186   -2.5828 H   0  0  0  0  0  0  0  0  0  0  0  0
    4.2065    2.8011    0.3878 H   0  0  0  0  0  0  0  0  0  0  0  0
    2.3637    1.4116    1.2011 H   0  0  0  0  0  0  0  0  0  0  0  0
    0.4716   -2.7984    0.8886 H   0  0  0  0  0  0  0  0  0  0  0  0
   -1.4280   -1.5252    2.5944 H   0  0  0  0  0  0  0  0  0  0  0  0
   -2.0321   -2.6028    0.2130 H   0  0  0  0  0  0  0  0  0  0  0  0
   -0.8276   -2.0137   -0.9631 H   0  0  0  0  0  0  0  0  0  0  0  0
  1  2  1  0
  2  3  2  0
  3  4  1  0
  4  5  1  0
  4  6  2  0
  6  7  1  0
  7  8  2  0
  7  9  1  0
  9 10  1  0
 10 11  1  0
 11 12  2  0
 12 13  1  0
 13 14  2  0
 14 15  1  0
 14 16  1  0
 16 17  1  0
 16 18  2  0
 10 19  1  0
 19 20  1  0
 19 21  1  0
  8  2  1  0
 18 11  1  0
 21  6  1  0
  1 22  1  0
  3 23  1  0
  5 24  1  0
  8 25  1  0
 10 26  1  1
 12 27  1  0
 13 28  1  0
 15 29  1  0
 17 30  1  0
 18 31  1  0
 19 32  1  6
 20 33  1  0
 21 34  1  0
 21 35  1  0
M  END

     RDKit          3D

 32 34  0  0  0  0  0  0  0  0999 V2000
   -1.8677   -2.7039    1.6151 O   0  0  0  0  0  0  0  0  0  0  0  0
   -1.4268   -1.6840    1.0244 C   0  0  0  0  0  0  0  0  0  0  0  0
    0.0651   -1.4925    0.9670 C   0  0  0  0  0  0  0  0  0  0  0  0
    0.4311   -0.0194    0.7039 C   0  0  1  0  0  0  0  0  0  0  0  0
    1.9087    0.2242    0.4294 C   0  0  0  0  0  0  0  0  0  0  0  0
    2.9167   -0.6846    0.8201 C   0  0  0  0  0  0  0  0  0  0  0  0
    4.2650   -0.3937    0.5898 C   0  0  0  0  0  0  0  0  0  0  0  0
    4.6336    0.8140   -0.0136 C   0  0  0  0  0  0  0  0  0  0  0  0
    5.9741    1.1125   -0.2473 O   0  0  0  0  0  0  0  0  0  0  0  0
    3.6479    1.7326   -0.3798 C   0  0  0  0  0  0  0  0  0  0  0  0
    2.2991    1.4470   -0.1509 C   0  0  0  0  0  0  0  0  0  0  0  0
   -0.3422    0.4685   -0.3942 O   0  0  0  0  0  0  0  0  0  0  0  0
   -1.7191    0.2480   -0.4886 C   0  0  0  0  0  0  0  0  0  0  0  0
   -2.4734    1.0395   -1.3575 C   0  0  0  0  0  0  0  0  0  0  0  0
   -3.8558    0.8613   -1.4508 C   0  0  0  0  0  0  0  0  0  0  0  0
   -4.6161    1.6424   -2.3184 O   0  0  0  0  0  0  0  0  0  0  0  0
   -4.4847   -0.0999   -0.6583 C   0  0  0  0  0  0  0  0  0  0  0  0
   -3.7479   -0.8991    0.2253 C   0  0  0  0  0  0  0  0  0  0  0  0
   -4.4680   -1.7826    1.0329 O   0  0  0  0  0  0  0  0  0  0  0  0
   -2.3322   -0.7650    0.2775 C   0  0  0  0  0  0  0  0  0  0  0  0
    0.4684   -2.1328    0.1527 H   0  0  0  0  0  0  0  0  0  0  0  0
    0.4995   -1.8184    1.9370 H   0  0  0  0  0  0  0  0  0  0  0  0
    0.1587    0.5682    1.6087 H   0  0  0  0  0  0  0  0  0  0  0  0
    2.6788   -1.6211    1.3032 H   0  0  0  0  0  0  0  0  0  0  0  0
    5.0237   -1.1066    0.8874 H   0  0  0  0  0  0  0  0  0  0  0  0
    6.7128    0.4685    0.0104 H   0  0  0  0  0  0  0  0  0  0  0  0
    3.9273    2.6736   -0.8366 H   0  0  0  0  0  0  0  0  0  0  0  0
    1.5574    2.1867   -0.4264 H   0  0  0  0  0  0  0  0  0  0  0  0
   -1.9829    1.7987   -1.9539 H   0  0  0  0  0  0  0  0  0  0  0  0
   -4.1903    2.3513   -2.9041 H   0  0  0  0  0  0  0  0  0  0  0  0
   -5.5603   -0.2147   -0.7143 H   0  0  0  0  0  0  0  0  0  0  0  0
   -4.1004   -2.2186    1.8656 H   0  0  0  0  0  0  0  0  0  0  0  0
  1  2  2  0
  2  3  1  0
  3  4  1  0
  4  5  1  0
  5  6  2  0
  6  7  1  0
  7  8  2  0
  8  9  1  0
  8 10  1  0
 10 11  2  0
  4 12  1  0
 12 13  1  0
 13 14  2  0
 14 15  1  0
 15 16  1  0
 15 17  2  0
 17 18  1  0
 18 19  1  0
 18 20  2  0
 20  2  1  0
 11  5  1  0
 20 13  1  0
  3 21  1  0
  3 22  1  0
  4 23  1  1
  6 24  1  0
  7 25  1  0
  9 26  1  0
 10 27  1  0
 11 28  1  0
 14 29  1  0
 16 30  1  0
 17 31  1  0
 19 32  1  0
M  END

     RDKit          3D

 28 30  0  0  0  0  0  0  0  0999 V2000
   -3.7791   -0.5746    0.4167 C   0  0  0  0  0  0  0  0  0  0  0  0
   -2.7420   -0.5286   -0.5565 O   0  0  0  0  0  0  0  0  0  0  0  0
   -1.5256    0.1222   -0.3234 C   0  0  0  0  0  0  0  0  0  0  0  0
   -1.4530    1.5017   -0.1114 C   0  0  0  0  0  0  0  0  0  0  0  0
   -2.4054    2.4984   -0.1257 C   0  0  0  0  0  0  0  0  0  0  0  0
   -1.6972    3.6703    0.1248 C   0  0  0  0  0  0  0  0  0  0  0  0
   -0.4104    3.4106    0.2676 O   0  0  0  0  0  0  0  0  0  0  0  0
   -0.2582    2.1196    0.1195 C   0  0  0  0  0  0  0  0  0  0  0  0
    0.9145    1.4436    0.1560 N   0  0  0  0  0  0  0  0  0  0  0  0
    0.9186    0.0925   -0.0553 C   0  0  0  0  0  0  0  0  0  0  0  0
    2.1325   -0.6122   -0.0254 C   0  0  0  0  0  0  0  0  0  0  0  0
    3.3179    0.0978    0.2263 O   0  0  0  0  0  0  0  0  0  0  0  0
    4.6134   -0.4902    0.2843 C   0  0  0  0  0  0  0  0  0  0  0  0
    2.1274   -2.0027   -0.2476 C   0  0  0  0  0  0  0  0  0  0  0  0
    0.9302   -2.6783   -0.4952 C   0  0  0  0  0  0  0  0  0  0  0  0
   -0.2811   -1.9860   -0.5260 C   0  0  0  0  0  0  0  0  0  0  0  0
   -0.3078   -0.5997   -0.3098 C   0  0  0  0  0  0  0  0  0  0  0  0
   -3.3993   -1.0433    1.3491 H   0  0  0  0  0  0  0  0  0  0  0  0
   -4.1590    0.4403    0.6433 H   0  0  0  0  0  0  0  0  0  0  0  0
   -4.6168   -1.1870    0.0249 H   0  0  0  0  0  0  0  0  0  0  0  0
   -3.4654    2.4097   -0.3176 H   0  0  0  0  0  0  0  0  0  0  0  0
   -2.1261    4.6613    0.1882 H   0  0  0  0  0  0  0  0  0  0  0  0
    5.3611    0.3007    0.4977 H   0  0  0  0  0  0  0  0  0  0  0  0
    4.6537   -1.2460    1.0969 H   0  0  0  0  0  0  0  0  0  0  0  0
    4.8628   -0.9615   -0.6899 H   0  0  0  0  0  0  0  0  0  0  0  0
    3.0459   -2.5731   -0.2310 H   0  0  0  0  0  0  0  0  0  0  0  0
    0.9418   -3.7476   -0.6633 H   0  0  0  0  0  0  0  0  0  0  0  0
   -1.1931   -2.5379   -0.7173 H   0  0  0  0  0  0  0  0  0  0  0  0
  1  2  1  0
  2  3  1  0
  3  4  2  0
  4  5  1  0
  5  6  2  0
  6  7  1  0
  7  8  1  0
  8  9  2  0
  9 10  1  0
 10 11  2  0
 11 12  1  0
 12 13  1  0
 11 14  1  0
 14 15  2  0
 15 16  1  0
 16 17  2  0
 17  3  1  0
  8  4  1  0
 17 10  1  0
  1 18  1  0
  1 19  1  0
  1 20  1  0
  5 21  1  0
  6 22  1  0
 13 23  1  0
 13 24  1  0
 13 25  1  0
 14 26  1  0
 15 27  1  0
 16 28  1  0
M  END

     RDKit          3D

 37 39  0  0  0  0  0  0  0  0999 V2000
   -1.9947   -0.3608    2.3409 C   0  0  0  0  0  0  0  0  0  0  0  0
   -1.6387   -0.1092    0.9334 N   0  0  0  0  0  0  0  0  0  0  0  0
   -2.5364   -0.7863   -0.0112 C   0  0  1  0  0  0  0  0  0  0  0  0
   -3.8005    0.0870   -0.0970 C   0  0  0  0  0  0  0  0  0  0  0  0
   -3.3187    1.4791    0.2845 C   0  0  0  0  0  0  0  0  0  0  0  0
   -1.8148    1.2959    0.5443 C   0  0  2  0  0  0  0  0  0  0  0  0
   -1.0004    1.5343   -0.7620 C   0  0  0  0  0  0  0  0  0  0  0  0
   -0.6798    0.2115   -1.5209 C   0  0  0  0  0  0  0  0  0  0  0  0
    0.5252   -0.3562   -1.0007 O   0  0  0  0  0  0  0  0  0  0  0  0
    1.8044    0.1378   -1.2823 C   0  0  0  0  0  0  0  0  0  0  0  0
    1.9535    1.0670   -2.1207 O   0  0  0  0  0  0  0  0  0  0  0  0
    2.9766   -0.4274   -0.5814 C   0  0  0  0  0  0  0  0  0  0  0  0
    4.2831   -0.0663   -0.9619 C   0  0  0  0  0  0  0  0  0  0  0  0
    5.3867   -0.5992   -0.2870 C   0  0  0  0  0  0  0  0  0  0  0  0
    5.1979   -1.4879    0.7747 C   0  0  0  0  0  0  0  0  0  0  0  0
    3.9059   -1.8517    1.1609 C   0  0  0  0  0  0  0  0  0  0  0  0
    2.7987   -1.3267    0.4868 C   0  0  0  0  0  0  0  0  0  0  0  0
   -1.8132   -0.8459   -1.3890 C   0  0  0  0  0  0  0  0  0  0  0  0
   -1.2724    0.1535    3.0058 H   0  0  0  0  0  0  0  0  0  0  0  0
   -1.9304   -1.4475    2.5588 H   0  0  0  0  0  0  0  0  0  0  0  0
   -3.0154   -0.0067    2.5880 H   0  0  0  0  0  0  0  0  0  0  0  0
   -2.7939   -1.8176    0.3223 H   0  0  0  0  0  0  0  0  0  0  0  0
   -4.5541   -0.2674    0.6407 H   0  0  0  0  0  0  0  0  0  0  0  0
   -4.2759    0.0822   -1.1027 H   0  0  0  0  0  0  0  0  0  0  0  0
   -3.8231    1.8138    1.2186 H   0  0  0  0  0  0  0  0  0  0  0  0
   -3.5459    2.2247   -0.5090 H   0  0  0  0  0  0  0  0  0  0  0  0
   -1.4645    1.9948    1.3372 H   0  0  0  0  0  0  0  0  0  0  0  0
   -0.0510    2.0481   -0.4984 H   0  0  0  0  0  0  0  0  0  0  0  0
   -1.5292    2.2282   -1.4495 H   0  0  0  0  0  0  0  0  0  0  0  0
   -0.5355    0.4307   -2.6026 H   0  0  0  0  0  0  0  0  0  0  0  0
    4.4523    0.6247   -1.7812 H   0  0  0  0  0  0  0  0  0  0  0  0
    6.3891   -0.3227   -0.5847 H   0  0  0  0  0  0  0  0  0  0  0  0
    6.0523   -1.8975    1.2979 H   0  0  0  0  0  0  0  0  0  0  0  0
    3.7606   -2.5400    1.9858 H   0  0  0  0  0  0  0  0  0  0  0  0
    1.8061   -1.6163    0.8072 H   0  0  0  0  0  0  0  0  0  0  0  0
   -2.5315   -0.7249   -2.2288 H   0  0  0  0  0  0  0  0  0  0  0  0
   -1.3724   -1.8589   -1.5167 H   0  0  0  0  0  0  0  0  0  0  0  0
  1  2  1  0
  2  3  1  0
  3  4  1  0
  4  5  1  0
  5  6  1  0
  6  7  1  0
  7  8  1  0
  8  9  1  0
  9 10  1  0
 10 11  2  0
 10 12  1  0
 12 13  2  0
 13 14  1  0
 14 15  2  0
 15 16  1  0
 16 17  2  0
  8 18  1  0
  6  2  1  0
 17 12  1  0
 18  3  1  0
  1 19  1  0
  1 20  1  0
  1 21  1  0
  3 22  1  1
  4 23  1  0
  4 24  1  0
  5 25  1  0
  5 26  1  0
  6 27  1  1
  7 28  1  0
  7 29  1  0
  8 30  1  0
 13 31  1  0
 14 32  1  0
 15 33  1  0
 16 34  1  0
 17 35  1  0
 18 36  1  0
 18 37  1  0
M  END

     RDKit          3D

 38 42  0  0  0  0  0  0  0  0999 V2000
   -2.6990   -2.8462   -0.1199 C   0  0  0  0  0  0  0  0  0  0  0  0
   -2.3635   -1.4317    0.1416 N   0  0  0  0  0  0  0  0  0  0  0  0
   -3.2731   -0.5736   -0.6435 C   0  0  0  0  0  0  0  0  0  0  0  0
   -3.1446    0.8751   -0.1862 C   0  0  0  0  0  0  0  0  0  0  0  0
   -1.7104    1.3173   -0.1634 C   0  0  0  0  0  0  0  0  0  0  0  0
   -1.4256    2.6939   -0.0889 C   0  0  0  0  0  0  0  0  0  0  0  0
   -0.1003    3.0848    0.0226 C   0  0  0  0  0  0  0  0  0  0  0  0
    0.9194    2.1890    0.0527 C   0  0  0  0  0  0  0  0  0  0  0  0
    0.6984    0.8053   -0.0378 C   0  0  0  0  0  0  0  0  0  0  0  0
   -0.6529    0.3641   -0.1105 C   0  0  0  0  0  0  0  0  0  0  0  0
   -0.9475   -1.1300   -0.2122 C   0  0  1  0  0  0  0  0  0  0  0  0
    0.0376   -1.8975    0.7036 C   0  0  0  0  0  0  0  0  0  0  0  0
    1.4683   -1.5275    0.3938 C   0  0  0  0  0  0  0  0  0  0  0  0
    2.4827   -2.4923    0.5050 C   0  0  0  0  0  0  0  0  0  0  0  0
    3.8050   -2.1622    0.2052 C   0  0  0  0  0  0  0  0  0  0  0  0
    4.1243   -0.8703   -0.2108 C   0  0  0  0  0  0  0  0  0  0  0  0
    3.1277    0.1043   -0.3071 C   0  0  0  0  0  0  0  0  0  0  0  0
    1.7930   -0.2031    0.0273 C   0  0  0  0  0  0  0  0  0  0  0  0
    2.1086    2.8769    0.2199 O   0  0  0  0  0  0  0  0  0  0  0  0
    1.8201    4.2785    0.2832 C   0  0  0  0  0  0  0  0  0  0  0  0
    0.3972    4.3671    0.1497 O   0  0  0  0  0  0  0  0  0  0  0  0
   -2.2275   -3.5013    0.6388 H   0  0  0  0  0  0  0  0  0  0  0  0
   -3.7915   -3.0230   -0.0167 H   0  0  0  0  0  0  0  0  0  0  0  0
   -2.3828   -3.1597   -1.1399 H   0  0  0  0  0  0  0  0  0  0  0  0
   -3.0519   -0.6505   -1.7339 H   0  0  0  0  0  0  0  0  0  0  0  0
   -4.3334   -0.8741   -0.4883 H   0  0  0  0  0  0  0  0  0  0  0  0
   -3.7343    1.5239   -0.8704 H   0  0  0  0  0  0  0  0  0  0  0  0
   -3.5634    0.9728    0.8390 H   0  0  0  0  0  0  0  0  0  0  0  0
   -2.2153    3.4344   -0.0931 H   0  0  0  0  0  0  0  0  0  0  0  0
   -0.7501   -1.4324   -1.2674 H   0  0  0  0  0  0  0  0  0  0  0  0
   -0.1754   -1.6632    1.7696 H   0  0  0  0  0  0  0  0  0  0  0  0
   -0.0813   -2.9903    0.5524 H   0  0  0  0  0  0  0  0  0  0  0  0
    2.2484   -3.5029    0.8146 H   0  0  0  0  0  0  0  0  0  0  0  0
    4.5805   -2.9135    0.2810 H   0  0  0  0  0  0  0  0  0  0  0  0
    5.1470   -0.6241   -0.4654 H   0  0  0  0  0  0  0  0  0  0  0  0
    3.4088    1.0803   -0.6730 H   0  0  0  0  0  0  0  0  0  0  0  0
    2.1387    4.6904    1.2645 H   0  0  0  0  0  0  0  0  0  0  0  0
    2.3184    4.8114   -0.5538 H   0  0  0  0  0  0  0  0  0  0  0  0
  1  2  1  0
  2  3  1  0
  3  4  1  0
  4  5  1  0
  5  6  2  0
  6  7  1  0
  7  8  2  0
  8  9  1  0
  9 10  2  0
 10 11  1  0
 11 12  1  0
 12 13  1  0
 13 14  2  0
 14 15  1  0
 15 16  2  0
 16 17  1  0
 17 18  2  0
  8 19  1  0
 19 20  1  0
 20 21  1  0
 11  2  1  0
 18 13  1  0
 10  5  1  0
 21  7  1  0
 18  9  1  0
  1 22  1  0
  1 23  1  0
  1 24  1  0
  3 25  1  0
  3 26  1  0
  4 27  1  0
  4 28  1  0
  6 29  1  0
 11 30  1  6
 12 31  1  0
 12 32  1  0
 14 33  1  0
 15 34  1  0
 16 35  1  0
 17 36  1  0
 20 37  1  0
 20 38  1  0
M  END

     RDKit          3D

 28 30  0  0  0  0  0  0  0  0999 V2000
   -3.3712   -0.3495   -1.4083 C   0  0  0  0  0  0  0  0  0  0  0  0
   -2.7130   -0.0215   -0.1872 O   0  0  0  0  0  0  0  0  0  0  0  0
   -1.3202   -0.0521   -0.0172 C   0  0  0  0  0  0  0  0  0  0  0  0
   -0.5170   -1.1257   -0.4393 C   0  0  0  0  0  0  0  0  0  0  0  0
   -0.8341   -2.3503   -0.9912 C   0  0  0  0  0  0  0  0  0  0  0  0
    0.3812   -2.9965   -1.1597 C   0  0  0  0  0  0  0  0  0  0  0  0
    1.3661   -2.2356   -0.7325 O   0  0  0  0  0  0  0  0  0  0  0  0
    0.8502   -1.1151   -0.2880 C   0  0  0  0  0  0  0  0  0  0  0  0
    1.5268   -0.0311    0.2929 C   0  0  0  0  0  0  0  0  0  0  0  0
    2.9218    0.0243    0.4432 O   0  0  0  0  0  0  0  0  0  0  0  0
    3.8298   -0.9993    0.0498 C   0  0  0  0  0  0  0  0  0  0  0  0
    0.7496    1.0502    0.7518 C   0  0  0  0  0  0  0  0  0  0  0  0
    1.3515    2.0924    1.3220 O   0  0  0  0  0  0  0  0  0  0  0  0
    0.6854    3.1505    1.7776 C   0  0  0  0  0  0  0  0  0  0  0  0
    1.3165    4.1045    2.3035 O   0  0  0  0  0  0  0  0  0  0  0  0
   -0.7068    3.2105    1.6738 C   0  0  0  0  0  0  0  0  0  0  0  0
   -1.3873    2.1464    1.0833 C   0  0  0  0  0  0  0  0  0  0  0  0
   -0.6699    1.0377    0.6094 C   0  0  0  0  0  0  0  0  0  0  0  0
   -2.7928    0.0361   -2.2753 H   0  0  0  0  0  0  0  0  0  0  0  0
   -4.3705    0.1286   -1.4120 H   0  0  0  0  0  0  0  0  0  0  0  0
   -3.5248   -1.4418   -1.4962 H   0  0  0  0  0  0  0  0  0  0  0  0
   -1.8048   -2.7605   -1.2167 H   0  0  0  0  0  0  0  0  0  0  0  0
    0.5158   -3.9862   -1.5715 H   0  0  0  0  0  0  0  0  0  0  0  0
    3.7283   -1.2038   -1.0371 H   0  0  0  0  0  0  0  0  0  0  0  0
    3.6421   -1.9220    0.6353 H   0  0  0  0  0  0  0  0  0  0  0  0
    4.8674   -0.6573    0.2485 H   0  0  0  0  0  0  0  0  0  0  0  0
   -1.2545    4.0712    2.0434 H   0  0  0  0  0  0  0  0  0  0  0  0
   -2.4658    2.1959    0.9978 H   0  0  0  0  0  0  0  0  0  0  0  0
  1  2  1  0
  2  3  1  0
  3  4  2  0
  4  5  1  0
  5  6  2  0
  6  7  1  0
  7  8  1  0
  8  9  2  0
  9 10  1  0
 10 11  1  0
  9 12  1  0
 12 13  1  0
 13 14  1  0
 14 15  2  0
 14 16  1  0
 16 17  2  0
 17 18  1  0
 18  3  1  0
  8  4  1  0
 18 12  2  0
  1 19  1  0
  1 20  1  0
  1 21  1  0
  5 22  1  0
  6 23  1  0
 11 24  1  0
 11 25  1  0
 11 26  1  0
 16 27  1  0
 17 28  1  0
M  END

     RDKit          3D

 35 37  0  0  0  0  0  0  0  0999 V2000
   -4.4816    2.8476    0.5310 C   0  0  0  0  0  0  0  0  0  0  0  0
   -4.7008    1.4441    0.4395 O   0  0  0  0  0  0  0  0  0  0  0  0
   -3.6790    0.4873    0.3649 C   0  0  0  0  0  0  0  0  0  0  0  0
   -4.0364   -0.8625    0.2764 C   0  0  0  0  0  0  0  0  0  0  0  0
   -3.0574   -1.8629    0.1868 C   0  0  0  0  0  0  0  0  0  0  0  0
   -3.4437   -3.1998    0.0835 O   0  0  0  0  0  0  0  0  0  0  0  0
   -1.6927   -1.5057    0.1929 C   0  0  0  0  0  0  0  0  0  0  0  0
   -1.3344   -0.1518    0.3127 C   0  0  0  0  0  0  0  0  0  0  0  0
   -2.3182    0.8378    0.3798 C   0  0  0  0  0  0  0  0  0  0  0  0
    0.0141    0.2179    0.3614 O   0  0  0  0  0  0  0  0  0  0  0  0
    1.0613   -0.7195    0.6396 C   0  0  2  0  0  0  0  0  0  0  0  0
    2.4205   -0.0920    0.3521 C   0  0  0  0  0  0  0  0  0  0  0  0
    3.5811   -0.8857    0.2411 C   0  0  0  0  0  0  0  0  0  0  0  0
    4.8323   -0.2958    0.0422 C   0  0  0  0  0  0  0  0  0  0  0  0
    4.9572    1.0934   -0.0122 C   0  0  0  0  0  0  0  0  0  0  0  0
    6.2141    1.6652   -0.1937 O   0  0  0  0  0  0  0  0  0  0  0  0
    3.8219    1.8964    0.1297 C   0  0  0  0  0  0  0  0  0  0  0  0
    2.5668    1.3125    0.3200 C   0  0  0  0  0  0  0  0  0  0  0  0
    0.8121   -2.0198   -0.1562 C   0  0  0  0  0  0  0  0  0  0  0  0
   -0.6011   -2.4957    0.0409 C   0  0  0  0  0  0  0  0  0  0  0  0
   -0.8422   -3.7334    0.0253 O   0  0  0  0  0  0  0  0  0  0  0  0
   -3.9206    3.0864    1.4574 H   0  0  0  0  0  0  0  0  0  0  0  0
   -5.4601    3.3635    0.5650 H   0  0  0  0  0  0  0  0  0  0  0  0
   -3.9234    3.2053   -0.3578 H   0  0  0  0  0  0  0  0  0  0  0  0
   -5.0841   -1.1355    0.2679 H   0  0  0  0  0  0  0  0  0  0  0  0
   -4.4191   -3.4760    0.0840 H   0  0  0  0  0  0  0  0  0  0  0  0
   -2.0123    1.8722    0.4628 H   0  0  0  0  0  0  0  0  0  0  0  0
    1.0287   -0.9651    1.7248 H   0  0  0  0  0  0  0  0  0  0  0  0
    3.5368   -1.9624    0.3158 H   0  0  0  0  0  0  0  0  0  0  0  0
    5.7099   -0.9198   -0.0553 H   0  0  0  0  0  0  0  0  0  0  0  0
    6.3406    2.6708   -0.2132 H   0  0  0  0  0  0  0  0  0  0  0  0
    3.9124    2.9755    0.1030 H   0  0  0  0  0  0  0  0  0  0  0  0
    1.7158    1.9663    0.4528 H   0  0  0  0  0  0  0  0  0  0  0  0
    1.4993   -2.8201    0.1897 H   0  0  0  0  0  0  0  0  0  0  0  0
    0.9823   -1.8387   -1.2407 H   0  0  0  0  0  0  0  0  0  0  0  0
  1  2  1  0
  2  3  1  0
  3  4  2  0
  4  5  1  0
  5  6  1  0
  5  7  2  0
  7  8  1  0
  8  9  2  0
  8 10  1  0
 10 11  1  0
 11 12  1  0
 12 13  2  0
 13 14  1  0
 14 15  2  0
 15 16  1  0
 15 17  1  0
 17 18  2  0
 11 19  1  0
 19 20  1  0
 20 21  2  0
  9  3  1  0
 18 12  1  0
 20  7  1  0
  1 22  1  0
  1 23  1  0
  1 24  1  0
  4 25  1  0
  6 26  1  0
  9 27  1  0
 11 28  1  1
 13 29  1  0
 14 30  1  0
 16 31  1  0
 17 32  1  0
 18 33  1  0
 19 34  1  0
 19 35  1  0
M  END

     RDKit          3D

 30 32  0  0  0  0  0  0  0  0999 V2000
   -3.9237    0.7795   -0.8345 C   0  0  0  0  0  0  0  0  0  0  0  0
   -2.8202    0.1100   -0.0082 C   0  0  0  0  0  0  0  0  0  0  0  0
   -3.2615   -0.0122    1.4557 C   0  0  0  0  0  0  0  0  0  0  0  0
   -2.5452   -1.2731   -0.5587 C   0  0  0  0  0  0  0  0  0  0  0  0
   -1.2986   -1.7353   -0.6765 C   0  0  0  0  0  0  0  0  0  0  0  0
   -0.1357   -0.8749   -0.3763 C   0  0  0  0  0  0  0  0  0  0  0  0
   -0.3423    0.4247   -0.0978 C   0  0  0  0  0  0  0  0  0  0  0  0
   -1.6480    0.9348   -0.0670 O   0  0  0  0  0  0  0  0  0  0  0  0
    0.7898    1.3372    0.1533 C   0  0  0  0  0  0  0  0  0  0  0  0
    0.5631    2.5526    0.3998 O   0  0  0  0  0  0  0  0  0  0  0  0
    2.1777    0.8231    0.1168 C   0  0  0  0  0  0  0  0  0  0  0  0
    3.2730    1.6700    0.3604 C   0  0  0  0  0  0  0  0  0  0  0  0
    4.5751    1.1652    0.3219 C   0  0  0  0  0  0  0  0  0  0  0  0
    4.7956   -0.1844    0.0408 C   0  0  0  0  0  0  0  0  0  0  0  0
    3.7152   -1.0359   -0.2033 C   0  0  0  0  0  0  0  0  0  0  0  0
    2.3999   -0.5400   -0.1673 C   0  0  0  0  0  0  0  0  0  0  0  0
    1.2402   -1.4260   -0.4249 C   0  0  0  0  0  0  0  0  0  0  0  0
    1.4208   -2.6472   -0.6842 O   0  0  0  0  0  0  0  0  0  0  0  0
   -4.1292    1.8005   -0.4472 H   0  0  0  0  0  0  0  0  0  0  0  0
   -3.6053    0.8681   -1.8956 H   0  0  0  0  0  0  0  0  0  0  0  0
   -4.8640    0.1879   -0.7932 H   0  0  0  0  0  0  0  0  0  0  0  0
   -4.1833   -0.6278    1.5402 H   0  0  0  0  0  0  0  0  0  0  0  0
   -2.4594   -0.4887    2.0597 H   0  0  0  0  0  0  0  0  0  0  0  0
   -3.4646    0.9937    1.8818 H   0  0  0  0  0  0  0  0  0  0  0  0
   -3.3750   -1.9375   -0.7703 H   0  0  0  0  0  0  0  0  0  0  0  0
   -1.1467   -2.7548   -1.0085 H   0  0  0  0  0  0  0  0  0  0  0  0
    3.1233    2.7196    0.5804 H   0  0  0  0  0  0  0  0  0  0  0  0
    5.4149    1.8216    0.5104 H   0  0  0  0  0  0  0  0  0  0  0  0
    5.8060   -0.5716    0.0119 H   0  0  0  0  0  0  0  0  0  0  0  0
    3.9082   -2.0791   -0.4196 H   0  0  0  0  0  0  0  0  0  0  0  0
  1  2  1  0
  2  3  1  0
  2  4  1  0
  4  5  2  0
  5  6  1  0
  6  7  2  0
  7  8  1  0
  7  9  1  0
  9 10  2  0
  9 11  1  0
 11 12  2  0
 12 13  1  0
 13 14  2  0
 14 15  1  0
 15 16  2  0
 16 17  1  0
 17 18  2  0
  8  2  1  0
 16 11  1  0
 17  6  1  0
  1 19  1  0
  1 20  1  0
  1 21  1  0
  3 22  1  0
  3 23  1  0
  3 24  1  0
  4 25  1  0
  5 26  1  0
 12 27  1  0
 13 28  1  0
 14 29  1  0
 15 30  1  0
M  END

     RDKit          3D

 17 16  0  0  0  0  0  0  0  0999 V2000
    1.5057    1.6773    0.7422 O   0  0  0  0  0  0  0  0  0  0  0  0
    1.7851    0.5243    0.3172 C   0  0  0  0  0  0  0  0  0  0  0  0
    2.8102   -0.2060    0.9100 O   0  0  0  0  0  0  0  0  0  0  0  0
    0.9962   -0.0744   -0.8064 C   0  0  0  0  0  0  0  0  0  0  0  0
    0.0012   -1.1328   -0.3046 C   0  0  0  0  0  0  0  0  0  0  0  0
   -1.1143   -0.5582    0.5830 C   0  0  0  0  0  0  0  0  0  0  0  0
   -2.0112    0.3687   -0.1782 C   0  0  0  0  0  0  0  0  0  0  0  0
   -2.8934   -0.0970   -0.9482 O   0  0  0  0  0  0  0  0  0  0  0  0
   -1.8490    1.7453   -0.0581 O   0  0  0  0  0  0  0  0  0  0  0  0
    3.3458    0.1800    1.6783 H   0  0  0  0  0  0  0  0  0  0  0  0
    0.4642    0.7220   -1.3701 H   0  0  0  0  0  0  0  0  0  0  0  0
    1.7048   -0.5582   -1.5122 H   0  0  0  0  0  0  0  0  0  0  0  0
   -0.4560   -1.6405   -1.1821 H   0  0  0  0  0  0  0  0  0  0  0  0
    0.5529   -1.9093    0.2694 H   0  0  0  0  0  0  0  0  0  0  0  0
   -1.7241   -1.3984    0.9799 H   0  0  0  0  0  0  0  0  0  0  0  0
   -0.6792   -0.0278    1.4567 H   0  0  0  0  0  0  0  0  0  0  0  0
   -2.4387    2.3850   -0.5768 H   0  0  0  0  0  0  0  0  0  0  0  0
  1  2  2  0
  2  3  1  0
  2  4  1  0
  4  5  1  0
  5  6  1  0
  6  7  1  0
  7  8  2  0
  7  9  1  0
  3 10  1  0
  4 11  1  0
  4 12  1  0
  5 13  1  0
  5 14  1  0
  6 15  1  0
  6 16  1  0
  9 17  1  0
M  END

     RDKit          3D

 23 23  0  0  0  0  0  0  0  0999 V2000
   -3.0562   -2.0580    0.0485 C   0  0  0  0  0  0  0  0  0  0  0  0
   -2.4203   -0.7841    0.0317 O   0  0  0  0  0  0  0  0  0  0  0  0
   -1.0308   -0.5893   -0.0206 C   0  0  0  0  0  0  0  0  0  0  0  0
   -0.1268   -1.6665   -0.0618 C   0  0  0  0  0  0  0  0  0  0  0  0
    1.2486   -1.4347   -0.1133 C   0  0  0  0  0  0  0  0  0  0  0  0
    1.7506   -0.1248   -0.1248 C   0  0  0  0  0  0  0  0  0  0  0  0
    3.2106    0.1131   -0.1796 C   0  0  0  0  0  0  0  0  0  0  0  0
    3.6669    1.2886   -0.1901 O   0  0  0  0  0  0  0  0  0  0  0  0
    4.0959   -0.9612   -0.2200 O   0  0  0  0  0  0  0  0  0  0  0  0
    0.8482    0.9524   -0.0836 C   0  0  0  0  0  0  0  0  0  0  0  0
   -0.5417    0.7256   -0.0315 C   0  0  0  0  0  0  0  0  0  0  0  0
   -1.4681    1.7800    0.0104 O   0  0  0  0  0  0  0  0  0  0  0  0
   -1.1217    3.1612    0.0054 C   0  0  0  0  0  0  0  0  0  0  0  0
   -2.7376   -2.6321    0.9442 H   0  0  0  0  0  0  0  0  0  0  0  0
   -4.1551   -1.9139    0.0917 H   0  0  0  0  0  0  0  0  0  0  0  0
   -2.8076   -2.6212   -0.8758 H   0  0  0  0  0  0  0  0  0  0  0  0
   -0.4774   -2.6894   -0.0545 H   0  0  0  0  0  0  0  0  0  0  0  0
    1.9190   -2.2845   -0.1442 H   0  0  0  0  0  0  0  0  0  0  0  0
    5.0968   -0.8095   -0.2577 H   0  0  0  0  0  0  0  0  0  0  0  0
    1.2302    1.9641   -0.0923 H   0  0  0  0  0  0  0  0  0  0  0  0
   -0.5018    3.4028    0.8945 H   0  0  0  0  0  0  0  0  0  0  0  0
   -2.0497    3.7675    0.0448 H   0  0  0  0  0  0  0  0  0  0  0  0
   -0.5718    3.4138   -0.9257 H   0  0  0  0  0  0  0  0  0  0  0  0
  1  2  1  0
  2  3  1  0
  3  4  2  0
  4  5  1  0
  5  6  2  0
  6  7  1  0
  7  8  2  0
  7  9  1  0
  6 10  1  0
 10 11  2  0
 11 12  1  0
 12 13  1  0
 11  3  1  0
  1 14  1  0
  1 15  1  0
  1 16  1  0
  4 17  1  0
  5 18  1  0
  9 19  1  0
 10 20  1  0
 13 21  1  0
 13 22  1  0
 13 23  1  0
M  END

     RDKit          3D

 25 25  0  0  0  0  0  0  0  0999 V2000
   -3.7591    0.9105   -0.5902 C   0  0  0  0  0  0  0  0  0  0  0  0
   -2.8802    0.2008   -1.5227 N   0  0  0  0  0  0  0  0  0  0  0  0
   -1.4524    0.4345   -1.2479 C   0  0  0  0  0  0  0  0  0  0  0  0
   -0.9302   -0.3534   -0.0182 C   0  0  2  0  0  0  0  0  0  0  0  0
   -1.3991    0.1883    1.1919 O   0  0  0  0  0  0  0  0  0  0  0  0
    0.5858   -0.4149   -0.0077 C   0  0  0  0  0  0  0  0  0  0  0  0
    1.3563    0.7615    0.0590 C   0  0  0  0  0  0  0  0  0  0  0  0
    2.7526    0.6942    0.0695 C   0  0  0  0  0  0  0  0  0  0  0  0
    3.3983   -0.5475    0.0149 C   0  0  0  0  0  0  0  0  0  0  0  0
    4.7890   -0.6264    0.0249 O   0  0  0  0  0  0  0  0  0  0  0  0
    2.6406   -1.7202   -0.0503 C   0  0  0  0  0  0  0  0  0  0  0  0
    1.2439   -1.6570   -0.0613 C   0  0  0  0  0  0  0  0  0  0  0  0
   -3.4536    1.9736   -0.4822 H   0  0  0  0  0  0  0  0  0  0  0  0
   -3.7691    0.4137    0.4025 H   0  0  0  0  0  0  0  0  0  0  0  0
   -4.7949    0.8943   -0.9886 H   0  0  0  0  0  0  0  0  0  0  0  0
   -3.0924   -0.8233   -1.4798 H   0  0  0  0  0  0  0  0  0  0  0  0
   -1.2492    1.5228   -1.1400 H   0  0  0  0  0  0  0  0  0  0  0  0
   -0.8845    0.1017   -2.1442 H   0  0  0  0  0  0  0  0  0  0  0  0
   -1.3270   -1.3895   -0.0884 H   0  0  0  0  0  0  0  0  0  0  0  0
   -1.1647    1.1525    1.2098 H   0  0  0  0  0  0  0  0  0  0  0  0
    0.8793    1.7322    0.0998 H   0  0  0  0  0  0  0  0  0  0  0  0
    3.3315    1.6076    0.1199 H   0  0  0  0  0  0  0  0  0  0  0  0
    5.3662    0.2053    0.0715 H   0  0  0  0  0  0  0  0  0  0  0  0
    3.1347   -2.6826   -0.0925 H   0  0  0  0  0  0  0  0  0  0  0  0
    0.6782   -2.5789   -0.1121 H   0  0  0  0  0  0  0  0  0  0  0  0
  1  2  1  0
  2  3  1  0
  3  4  1  0
  4  5  1  0
  4  6  1  0
  6  7  2  0
  7  8  1  0
  8  9  2  0
  9 10  1  0
  9 11  1  0
 11 12  2  0
 12  6  1  0
  1 13  1  0
  1 14  1  0
  1 15  1  0
  2 16  1  0
  3 17  1  0
  3 18  1  0
  4 19  1  6
  5 20  1  0
  7 21  1  0
  8 22  1  0
 10 23  1  0
 11 24  1  0
 12 25  1  0
M  END

     RDKit          3D

 20 20  0  0  0  0  0  0  0  0999 V2000
    3.9286   -0.5630    0.4259 C   0  0  0  0  0  0  0  0  0  0  0  0
    2.5062   -0.5642    0.4361 O   0  0  0  0  0  0  0  0  0  0  0  0
    1.7447    0.3540   -0.2954 C   0  0  0  0  0  0  0  0  0  0  0  0
    2.3186    1.2292   -1.0012 O   0  0  0  0  0  0  0  0  0  0  0  0
    0.2669    0.2966   -0.2397 C   0  0  0  0  0  0  0  0  0  0  0  0
   -0.5147    1.2109   -0.9679 C   0  0  0  0  0  0  0  0  0  0  0  0
   -1.9095    1.1519   -0.9115 C   0  0  0  0  0  0  0  0  0  0  0  0
   -2.5454    0.1804   -0.1280 C   0  0  0  0  0  0  0  0  0  0  0  0
   -3.9372    0.1244   -0.0740 O   0  0  0  0  0  0  0  0  0  0  0  0
   -1.7739   -0.7377    0.6034 C   0  0  0  0  0  0  0  0  0  0  0  0
   -2.3764   -1.7169    1.3928 O   0  0  0  0  0  0  0  0  0  0  0  0
   -0.3766   -0.6765    0.5451 C   0  0  0  0  0  0  0  0  0  0  0  0
    4.2984   -1.3800    1.0788 H   0  0  0  0  0  0  0  0  0  0  0  0
    4.3015   -0.7307   -0.6067 H   0  0  0  0  0  0  0  0  0  0  0  0
    4.3108    0.4062    0.8106 H   0  0  0  0  0  0  0  0  0  0  0  0
   -0.0492    1.9721   -1.5816 H   0  0  0  0  0  0  0  0  0  0  0  0
   -2.4964    1.8635   -1.4784 H   0  0  0  0  0  0  0  0  0  0  0  0
   -4.5151    0.7756   -0.5925 H   0  0  0  0  0  0  0  0  0  0  0  0
   -3.3828   -1.8031    1.4685 H   0  0  0  0  0  0  0  0  0  0  0  0
    0.2015   -1.3927    1.1158 H   0  0  0  0  0  0  0  0  0  0  0  0
  1  2  1  0
  2  3  1  0
  3  4  2  0
  3  5  1  0
  5  6  2  0
  6  7  1  0
  7  8  2  0
  8  9  1  0
  8 10  1  0
 10 11  1  0
 10 12  2  0
 12  5  1  0
  1 13  1  0
  1 14  1  0
  1 15  1  0
  6 16  1  0
  7 17  1  0
  9 18  1  0
 11 19  1  0
 12 20  1  0
M  END

     RDKit          3D

 44 47  0  0  0  0  0  0  0  0999 V2000
    4.5294   -0.6915   -2.3529 C   0  0  0  0  0  0  0  0  0  0  0  0
    4.1018    0.1707   -1.1938 C   0  0  0  0  0  0  0  0  0  0  0  0
    5.1498    1.0295   -0.5314 C   0  0  0  0  0  0  0  0  0  0  0  0
    2.8108    0.1670   -0.7919 C   0  0  0  0  0  0  0  0  0  0  0  0
    2.2680    0.9851    0.3591 C   0  0  0  0  0  0  0  0  0  0  0  0
    1.5148    0.0912    1.3097 C   0  0  0  0  0  0  0  0  0  0  0  0
    2.1945   -0.8092    2.1657 C   0  0  0  0  0  0  0  0  0  0  0  0
    3.5883   -0.8540    2.1661 O   0  0  0  0  0  0  0  0  0  0  0  0
    1.4615   -1.6679    3.0158 C   0  0  0  0  0  0  0  0  0  0  0  0
    0.0579   -1.6456    3.0128 C   0  0  0  0  0  0  0  0  0  0  0  0
   -0.5897   -0.7464    2.1666 C   0  0  0  0  0  0  0  0  0  0  0  0
    0.1148    0.0943    1.3481 C   0  0  0  0  0  0  0  0  0  0  0  0
   -0.7318    0.9037    0.6181 O   0  0  0  0  0  0  0  0  0  0  0  0
   -2.0742    0.7287    1.0699 C   0  0  1  0  0  0  0  0  0  0  0  0
   -3.0549    0.7424   -0.0756 C   0  0  0  0  0  0  0  0  0  0  0  0
   -3.1744    1.8880   -0.8798 C   0  0  0  0  0  0  0  0  0  0  0  0
   -4.1577    1.9523   -1.8721 C   0  0  0  0  0  0  0  0  0  0  0  0
   -5.0409    0.8796   -2.0590 C   0  0  0  0  0  0  0  0  0  0  0  0
   -6.0370    0.9414   -3.0305 O   0  0  0  0  0  0  0  0  0  0  0  0
   -4.9279   -0.2619   -1.2566 C   0  0  0  0  0  0  0  0  0  0  0  0
   -3.9342   -0.3369   -0.2745 C   0  0  0  0  0  0  0  0  0  0  0  0
   -3.8222   -1.4848    0.5105 O   0  0  0  0  0  0  0  0  0  0  0  0
   -2.6049   -1.8018    1.1743 C   0  0  0  0  0  0  0  0  0  0  0  0
   -2.0531   -0.5764    1.9272 C   0  0  1  0  0  0  0  0  0  0  0  0
    3.6927   -1.3057   -2.7485 H   0  0  0  0  0  0  0  0  0  0  0  0
    5.3408   -1.3766   -2.0257 H   0  0  0  0  0  0  0  0  0  0  0  0
    4.9086   -0.0421   -3.1707 H   0  0  0  0  0  0  0  0  0  0  0  0
    6.1415    0.8871   -1.0121 H   0  0  0  0  0  0  0  0  0  0  0  0
    5.2486    0.7597    0.5401 H   0  0  0  0  0  0  0  0  0  0  0  0
    4.8715    2.0991   -0.6236 H   0  0  0  0  0  0  0  0  0  0  0  0
    2.0922   -0.4518   -1.3263 H   0  0  0  0  0  0  0  0  0  0  0  0
    3.0555    1.5213    0.9291 H   0  0  0  0  0  0  0  0  0  0  0  0
    1.5978    1.7625   -0.0652 H   0  0  0  0  0  0  0  0  0  0  0  0
    4.0973   -1.4936    2.7659 H   0  0  0  0  0  0  0  0  0  0  0  0
    1.9819   -2.3586    3.6666 H   0  0  0  0  0  0  0  0  0  0  0  0
   -0.5095   -2.3170    3.6444 H   0  0  0  0  0  0  0  0  0  0  0  0
   -2.3232    1.5796    1.7431 H   0  0  0  0  0  0  0  0  0  0  0  0
   -2.5157    2.7358   -0.7281 H   0  0  0  0  0  0  0  0  0  0  0  0
   -4.2464    2.8423   -2.4813 H   0  0  0  0  0  0  0  0  0  0  0  0
   -6.1578    1.7651   -3.6114 H   0  0  0  0  0  0  0  0  0  0  0  0
   -5.6052   -1.0940   -1.4016 H   0  0  0  0  0  0  0  0  0  0  0  0
   -1.8753   -2.1511    0.4091 H   0  0  0  0  0  0  0  0  0  0  0  0
   -2.7821   -2.6343    1.8882 H   0  0  0  0  0  0  0  0  0  0  0  0
   -2.6018   -0.4249    2.8813 H   0  0  0  0  0  0  0  0  0  0  0  0
  1  2  1  0
  2  3  1  0
  2  4  2  3
  4  5  1  0
  5  6  1  0
  6  7  2  0
  7  8  1  0
  7  9  1  0
  9 10  2  0
 10 11  1  0
 11 12  2  0
 12 13  1  0
 13 14  1  0
 14 15  1  0
 15 16  2  0
 16 17  1  0
 17 18  2  0
 18 19  1  0
 18 20  1  0
 20 21  2  0
 21 22  1  0
 22 23  1  0
 23 24  1  0
 12  6  1  0
 24 14  1  0
 24 11  1  0
 21 15  1  0
  1 25  1  0
  1 26  1  0
  1 27  1  0
  3 28  1  0
  3 29  1  0
  3 30  1  0
  4 31  1  0
  5 32  1  0
  5 33  1  0
  8 34  1  0
  9 35  1  0
 10 36  1  0
 14 37  1  1
 16 38  1  0
 17 39  1  0
 19 40  1  0
 20 41  1  0
 23 42  1  0
 23 43  1  0
 24 44  1  1
M  END

     RDKit          3D

 22 22  0  0  0  0  0  0  0  0999 V2000
    4.6088    0.3705   -0.2015 C   0  0  0  0  0  0  0  0  0  0  0  0
    3.1899    0.2732   -0.1806 O   0  0  0  0  0  0  0  0  0  0  0  0
    2.4845   -0.6402   -0.9721 C   0  0  0  0  0  0  0  0  0  0  0  0
    3.1011   -1.4233   -1.7445 O   0  0  0  0  0  0  0  0  0  0  0  0
    1.0155   -0.7018   -0.9137 C   0  0  0  0  0  0  0  0  0  0  0  0
    0.3025    0.1190   -0.1304 C   0  0  0  0  0  0  0  0  0  0  0  0
   -1.1790    0.1003   -0.0483 C   0  0  0  0  0  0  0  0  0  0  0  0
   -1.8399    1.2395    0.4436 C   0  0  0  0  0  0  0  0  0  0  0  0
   -3.2340    1.2634    0.5475 C   0  0  0  0  0  0  0  0  0  0  0  0
   -3.9836    0.1472    0.1714 C   0  0  0  0  0  0  0  0  0  0  0  0
   -3.3400   -0.9973   -0.3035 C   0  0  0  0  0  0  0  0  0  0  0  0
   -1.9458   -1.0271   -0.4105 C   0  0  0  0  0  0  0  0  0  0  0  0
    4.9567    0.6375   -1.2219 H   0  0  0  0  0  0  0  0  0  0  0  0
    4.9303    1.1616    0.5065 H   0  0  0  0  0  0  0  0  0  0  0  0
    5.0607   -0.5955    0.1086 H   0  0  0  0  0  0  0  0  0  0  0  0
    0.5233   -1.4230   -1.5515 H   0  0  0  0  0  0  0  0  0  0  0  0
    0.8225    0.8718    0.4508 H   0  0  0  0  0  0  0  0  0  0  0  0
   -1.2764    2.1159    0.7404 H   0  0  0  0  0  0  0  0  0  0  0  0
   -3.7331    2.1482    0.9212 H   0  0  0  0  0  0  0  0  0  0  0  0
   -5.0626    0.1667    0.2541 H   0  0  0  0  0  0  0  0  0  0  0  0
   -3.9219   -1.8664   -0.5827 H   0  0  0  0  0  0  0  0  0  0  0  0
   -1.4795   -1.9402   -0.7527 H   0  0  0  0  0  0  0  0  0  0  0  0
  1  2  1  0
  2  3  1  0
  3  4  2  0
  3  5  1  0
  5  6  2  0
  6  7  1  0
  7  8  2  0
  8  9  1  0
  9 10  2  0
 10 11  1  0
 11 12  2  0
 12  7  1  0
  1 13  1  0
  1 14  1  0
  1 15  1  0
  5 16  1  0
  6 17  1  0
  8 18  1  0
  9 19  1  0
 10 20  1  0
 11 21  1  0
 12 22  1  0
M  END

     RDKit          3D

 40 43  0  0  0  0  0  0  0  0999 V2000
    1.1086   -1.9795    1.6068 C   0  0  0  0  0  0  0  0  0  0  0  0
    0.7473   -1.1168    0.6512 C   0  0  0  0  0  0  0  0  0  0  0  0
   -0.6922   -0.8510    0.4555 C   0  0  0  0  0  0  0  0  0  0  0  0
   -1.6087   -1.8384    0.3180 N   0  0  0  0  0  0  0  0  0  0  0  0
   -2.7886   -1.2261    0.1346 C   0  0  0  0  0  0  0  0  0  0  0  0
   -4.0312   -1.8316   -0.0410 C   0  0  0  0  0  0  0  0  0  0  0  0
   -5.1530   -0.9980   -0.1943 C   0  0  0  0  0  0  0  0  0  0  0  0
   -5.0109    0.4062   -0.1614 C   0  0  0  0  0  0  0  0  0  0  0  0
   -3.7443    0.9899    0.0208 C   0  0  0  0  0  0  0  0  0  0  0  0
   -2.6443    0.1382    0.1575 C   0  0  0  0  0  0  0  0  0  0  0  0
   -1.2976    0.4035    0.3503 C   0  0  0  0  0  0  0  0  0  0  0  0
   -0.6848    1.7550    0.6251 C   0  0  0  0  0  0  0  0  0  0  0  0
    0.5835    2.0153   -0.0902 N   0  0  0  0  0  0  0  0  0  0  0  0
    0.6886    1.5127   -1.4746 C   0  0  0  0  0  0  0  0  0  0  0  0
    1.2452    0.0705   -1.5689 C   0  0  0  0  0  0  0  0  0  0  0  0
    1.8083   -0.4893   -0.2422 C   0  0  1  0  0  0  0  0  0  0  0  0
    2.5399    0.6085    0.5020 C   0  0  0  0  0  0  0  0  0  0  0  0
    3.8120    0.4937    0.9478 C   0  0  0  0  0  0  0  0  0  0  0  0
    4.6952   -0.6966    0.7048 C   0  0  0  0  0  0  0  0  0  0  0  0
    1.8235    1.9202    0.7060 C   0  0  0  0  0  0  0  0  0  0  0  0
    0.3698   -2.4436    2.2495 H   0  0  0  0  0  0  0  0  0  0  0  0
    2.1452   -2.2315    1.7730 H   0  0  0  0  0  0  0  0  0  0  0  0
   -1.4351   -2.8681    0.3430 H   0  0  0  0  0  0  0  0  0  0  0  0
   -4.1326   -2.9092   -0.0540 H   0  0  0  0  0  0  0  0  0  0  0  0
   -6.1320   -1.4367   -0.3328 H   0  0  0  0  0  0  0  0  0  0  0  0
   -5.8827    1.0377   -0.2772 H   0  0  0  0  0  0  0  0  0  0  0  0
   -3.6382    2.0659    0.0483 H   0  0  0  0  0  0  0  0  0  0  0  0
   -1.3979    2.5468    0.3203 H   0  0  0  0  0  0  0  0  0  0  0  0
   -0.5647    1.8643    1.7240 H   0  0  0  0  0  0  0  0  0  0  0  0
   -0.2994    1.5701   -1.9808 H   0  0  0  0  0  0  0  0  0  0  0  0
    1.3609    2.1944   -2.0399 H   0  0  0  0  0  0  0  0  0  0  0  0
    2.0646    0.0683   -2.3217 H   0  0  0  0  0  0  0  0  0  0  0  0
    0.4664   -0.6131   -1.9723 H   0  0  0  0  0  0  0  0  0  0  0  0
    2.5038   -1.3051   -0.5357 H   0  0  0  0  0  0  0  0  0  0  0  0
    4.2586    1.3320    1.4773 H   0  0  0  0  0  0  0  0  0  0  0  0
    4.8209   -0.8643   -0.3853 H   0  0  0  0  0  0  0  0  0  0  0  0
    5.6980   -0.5097    1.1428 H   0  0  0  0  0  0  0  0  0  0  0  0
    4.2728   -1.6022    1.1819 H   0  0  0  0  0  0  0  0  0  0  0  0
    2.4941    2.7473    0.3826 H   0  0  0  0  0  0  0  0  0  0  0  0
    1.6309    2.0705    1.7903 H   0  0  0  0  0  0  0  0  0  0  0  0
  1  2  2  3
  2  3  1  0
  3  4  1  0
  4  5  1  0
  5  6  2  0
  6  7  1  0
  7  8  2  0
  8  9  1  0
  9 10  2  0
 10 11  1  0
 11 12  1  0
 12 13  1  0
 13 14  1  0
 14 15  1  0
 15 16  1  0
 16 17  1  0
 17 18  2  0
 18 19  1  0
 17 20  1  0
 16  2  1  0
 11  3  2  0
 20 13  1  0
 10  5  1  0
  1 21  1  0
  1 22  1  0
  4 23  1  0
  6 24  1  0
  7 25  1  0
  8 26  1  0
  9 27  1  0
 12 28  1  0
 12 29  1  0
 14 30  1  0
 14 31  1  0
 15 32  1  0
 15 33  1  0
 16 34  1  6
 18 35  1  0
 19 36  1  0
 19 37  1  0
 19 38  1  0
 20 39  1  0
 20 40  1  0
M  END

     RDKit          3D

 32 34  0  0  0  0  0  0  0  0999 V2000
    5.7157   -0.5029    0.0337 C   0  0  0  0  0  0  0  0  0  0  0  0
    4.4733   -0.8933    0.6097 O   0  0  0  0  0  0  0  0  0  0  0  0
    3.2184   -0.4469    0.1684 C   0  0  0  0  0  0  0  0  0  0  0  0
    3.0708    0.4442   -0.9053 C   0  0  0  0  0  0  0  0  0  0  0  0
    1.7998    0.8698   -1.3177 C   0  0  0  0  0  0  0  0  0  0  0  0
    1.7060    1.7496   -2.3972 O   0  0  0  0  0  0  0  0  0  0  0  0
    0.6388    0.4013   -0.6488 C   0  0  0  0  0  0  0  0  0  0  0  0
   -0.6677    0.8262   -1.0123 C   0  0  0  0  0  0  0  0  0  0  0  0
   -0.7979    1.8276   -1.9809 O   0  0  0  0  0  0  0  0  0  0  0  0
   -1.8042    0.2602   -0.3615 C   0  0  0  0  0  0  0  0  0  0  0  0
   -3.1469    0.4892   -0.7563 C   0  0  0  0  0  0  0  0  0  0  0  0
   -3.4361    1.1497   -1.7880 O   0  0  0  0  0  0  0  0  0  0  0  0
   -4.1913   -0.0649   -0.0156 C   0  0  0  0  0  0  0  0  0  0  0  0
   -3.8968   -0.8769    1.0796 C   0  0  0  0  0  0  0  0  0  0  0  0
   -4.9984   -1.4848    1.8865 C   0  0  0  0  0  0  0  0  0  0  0  0
   -2.6338   -1.1303    1.3975 O   0  0  0  0  0  0  0  0  0  0  0  0
   -1.6022   -0.6205    0.7308 C   0  0  0  0  0  0  0  0  0  0  0  0
   -0.3163   -0.9802    1.1216 C   0  0  0  0  0  0  0  0  0  0  0  0
    0.8002   -0.5015    0.4328 C   0  0  0  0  0  0  0  0  0  0  0  0
    2.0818   -0.9123    0.8284 C   0  0  0  0  0  0  0  0  0  0  0  0
    5.8484    0.5962    0.1207 H   0  0  0  0  0  0  0  0  0  0  0  0
    6.5414   -1.0045    0.5787 H   0  0  0  0  0  0  0  0  0  0  0  0
    5.7556   -0.8102   -1.0327 H   0  0  0  0  0  0  0  0  0  0  0  0
    3.9402    0.8145   -1.4314 H   0  0  0  0  0  0  0  0  0  0  0  0
    2.5271    2.0889   -2.8849 H   0  0  0  0  0  0  0  0  0  0  0  0
   -1.5833    2.4590   -2.0433 H   0  0  0  0  0  0  0  0  0  0  0  0
   -5.2213    0.1169   -0.3011 H   0  0  0  0  0  0  0  0  0  0  0  0
   -5.6646   -0.6870    2.2771 H   0  0  0  0  0  0  0  0  0  0  0  0
   -4.5795   -2.0517    2.7445 H   0  0  0  0  0  0  0  0  0  0  0  0
   -5.5885   -2.1790    1.2522 H   0  0  0  0  0  0  0  0  0  0  0  0
   -0.1928   -1.6602    1.9575 H   0  0  0  0  0  0  0  0  0  0  0  0
    2.2040   -1.6001    1.6576 H   0  0  0  0  0  0  0  0  0  0  0  0
  1  2  1  0
  2  3  1  0
  3  4  2  0
  4  5  1  0
  5  6  1  0
  5  7  2  0
  7  8  1  0
  8  9  1  0
  8 10  2  0
 10 11  1  0
 11 12  2  0
 11 13  1  0
 13 14  2  0
 14 15  1  0
 14 16  1  0
 16 17  1  0
 17 18  2  0
 18 19  1  0
 19 20  2  0
 20  3  1  0
 19  7  1  0
 17 10  1  0
  1 21  1  0
  1 22  1  0
  1 23  1  0
  4 24  1  0
  6 25  1  0
  9 26  1  0
 13 27  1  0
 15 28  1  0
 15 29  1  0
 15 30  1  0
 18 31  1  0
 20 32  1  0
M  END

     RDKit          3D

 35 39  0  0  0  0  0  0  0  0999 V2000
    3.6955   -2.2191   -0.5218 C   0  0  0  0  0  0  0  0  0  0  0  0
    3.8655   -0.8788   -0.8686 C   0  0  0  0  0  0  0  0  0  0  0  0
    2.8108    0.0340   -0.7257 C   0  0  0  0  0  0  0  0  0  0  0  0
    1.5701   -0.3942   -0.2229 C   0  0  0  0  0  0  0  0  0  0  0  0
    1.3875   -1.7651    0.0824 C   0  0  0  0  0  0  0  0  0  0  0  0
    2.4619   -2.6624   -0.0386 C   0  0  0  0  0  0  0  0  0  0  0  0
    0.0493   -2.2431    0.5826 C   0  0  0  0  0  0  0  0  0  0  0  0
   -1.0989   -1.4985   -0.1251 C   0  0  1  0  0  0  0  0  0  0  0  0
   -2.3978   -1.8912    0.4519 N   0  0  0  0  0  0  0  0  0  0  0  0
   -3.4851   -1.2042   -0.2564 C   0  0  0  0  0  0  0  0  0  0  0  0
   -3.4419    0.3228   -0.0167 C   0  0  0  0  0  0  0  0  0  0  0  0
   -2.0293    0.8619    0.0255 C   0  0  0  0  0  0  0  0  0  0  0  0
   -1.8330    2.2483    0.1779 C   0  0  0  0  0  0  0  0  0  0  0  0
   -0.5261    2.7308    0.2343 C   0  0  0  0  0  0  0  0  0  0  0  0
    0.5539    1.9163    0.1098 C   0  0  0  0  0  0  0  0  0  0  0  0
    0.4147    0.5315   -0.0753 C   0  0  0  0  0  0  0  0  0  0  0  0
   -0.9029   -0.0027   -0.0398 C   0  0  0  0  0  0  0  0  0  0  0  0
    1.7048    2.6736    0.2625 O   0  0  0  0  0  0  0  0  0  0  0  0
    1.3243    4.0277    0.5183 C   0  0  0  0  0  0  0  0  0  0  0  0
   -0.1064    4.0309    0.4560 O   0  0  0  0  0  0  0  0  0  0  0  0
    4.5178   -2.9196   -0.6402 H   0  0  0  0  0  0  0  0  0  0  0  0
    4.8126   -0.5411   -1.2685 H   0  0  0  0  0  0  0  0  0  0  0  0
    2.9638    1.0574   -1.0445 H   0  0  0  0  0  0  0  0  0  0  0  0
    2.3396   -3.7120    0.2243 H   0  0  0  0  0  0  0  0  0  0  0  0
   -0.0550   -3.3339    0.4006 H   0  0  0  0  0  0  0  0  0  0  0  0
   -0.0010   -2.0793    1.6811 H   0  0  0  0  0  0  0  0  0  0  0  0
   -1.0672   -1.7849   -1.2039 H   0  0  0  0  0  0  0  0  0  0  0  0
   -2.4319   -1.6311    1.4629 H   0  0  0  0  0  0  0  0  0  0  0  0
   -3.4124   -1.4258   -1.3546 H   0  0  0  0  0  0  0  0  0  0  0  0
   -4.4626   -1.6151    0.0911 H   0  0  0  0  0  0  0  0  0  0  0  0
   -3.9610    0.5794    0.9362 H   0  0  0  0  0  0  0  0  0  0  0  0
   -3.9908    0.8410   -0.8531 H   0  0  0  0  0  0  0  0  0  0  0  0
   -2.6759    2.9180    0.2826 H   0  0  0  0  0  0  0  0  0  0  0  0
    1.6544    4.3309    1.5267 H   0  0  0  0  0  0  0  0  0  0  0  0
    1.7527    4.6978   -0.2509 H   0  0  0  0  0  0  0  0  0  0  0  0
  1  2  2  0
  2  3  1  0
  3  4  2  0
  4  5  1  0
  5  6  2  0
  5  7  1  0
  7  8  1  0
  8  9  1  0
  9 10  1  0
 10 11  1  0
 11 12  1  0
 12 13  1  0
 13 14  2  0
 14 15  1  0
 15 16  2  0
 16 17  1  0
 15 18  1  0
 18 19  1  0
 19 20  1  0
  6  1  1  0
 17  8  1  0
 16  4  1  0
 17 12  2  0
 20 14  1  0
  1 21  1  0
  2 22  1  0
  3 23  1  0
  6 24  1  0
  7 25  1  0
  7 26  1  0
  8 27  1  6
  9 28  1  0
 10 29  1  0
 10 30  1  0
 11 31  1  0
 11 32  1  0
 13 33  1  0
 19 34  1  0
 19 35  1  0
M  END

     RDKit          3D

 35 37  0  0  0  0  0  0  0  0999 V2000
    4.1284   -0.8242    0.1617 C   0  0  0  0  0  0  0  0  0  0  0  0
    3.0461   -0.0786   -0.0600 C   0  0  0  0  0  0  0  0  0  0  0  0
    3.0438    1.3243   -0.4126 C   0  0  0  0  0  0  0  0  0  0  0  0
    4.0636    2.0411   -0.5912 O   0  0  0  0  0  0  0  0  0  0  0  0
    1.7505    1.7992   -0.4834 O   0  0  0  0  0  0  0  0  0  0  0  0
    0.8358    0.7084   -0.4083 C   0  0  1  0  0  0  0  0  0  0  0  0
    1.6241   -0.4362    0.2553 C   0  0  1  0  0  0  0  0  0  0  0  0
    1.1266   -1.7820   -0.2783 C   0  0  0  0  0  0  0  0  0  0  0  0
   -0.0617   -2.2405    0.5186 C   0  0  0  0  0  0  0  0  0  0  0  0
   -1.1581   -1.5078    0.8484 C   0  0  0  0  0  0  0  0  0  0  0  0
   -2.1768   -2.1536    1.7629 C   0  0  0  0  0  0  0  0  0  0  0  0
   -1.5030   -0.0850    0.3765 C   0  0  2  0  0  0  0  0  0  0  0  0
   -2.2173   -0.0373   -0.9743 C   0  0  0  0  0  0  0  0  0  0  0  0
   -2.2721    1.4511   -1.3288 C   0  0  0  0  0  0  0  0  0  0  0  0
   -1.1984    2.0702   -0.4885 C   0  0  0  0  0  0  0  0  0  0  0  0
   -0.9396    3.3828   -0.4756 C   0  0  0  0  0  0  0  0  0  0  0  0
   -0.4600    1.0582    0.3372 C   0  0  2  0  0  0  0  0  0  0  0  0
    5.1183   -0.4253   -0.0191 H   0  0  0  0  0  0  0  0  0  0  0  0
    4.0387   -1.8345    0.5369 H   0  0  0  0  0  0  0  0  0  0  0  0
    0.5903    0.4405   -1.4624 H   0  0  0  0  0  0  0  0  0  0  0  0
    1.5228   -0.3916    1.3648 H   0  0  0  0  0  0  0  0  0  0  0  0
    0.8658   -1.7465   -1.3578 H   0  0  0  0  0  0  0  0  0  0  0  0
    1.9225   -2.5487   -0.1710 H   0  0  0  0  0  0  0  0  0  0  0  0
    0.0326   -3.2427    0.9297 H   0  0  0  0  0  0  0  0  0  0  0  0
   -3.1859   -2.0853    1.3046 H   0  0  0  0  0  0  0  0  0  0  0  0
   -1.9673   -3.2276    1.9573 H   0  0  0  0  0  0  0  0  0  0  0  0
   -2.1879   -1.6203    2.7364 H   0  0  0  0  0  0  0  0  0  0  0  0
   -2.2637    0.2806    1.1090 H   0  0  0  0  0  0  0  0  0  0  0  0
   -1.6297   -0.5920   -1.7386 H   0  0  0  0  0  0  0  0  0  0  0  0
   -3.2386   -0.4723   -0.9097 H   0  0  0  0  0  0  0  0  0  0  0  0
   -3.2601    1.8794   -1.0526 H   0  0  0  0  0  0  0  0  0  0  0  0
   -2.0725    1.6108   -2.4102 H   0  0  0  0  0  0  0  0  0  0  0  0
   -0.1550    3.7848    0.1575 H   0  0  0  0  0  0  0  0  0  0  0  0
   -1.5137    4.0633   -1.0965 H   0  0  0  0  0  0  0  0  0  0  0  0
   -0.2487    1.4374    1.3621 H   0  0  0  0  0  0  0  0  0  0  0  0
  1  2  2  3
  2  3  1  0
  3  4  2  0
  3  5  1  0
  5  6  1  0
  6  7  1  0
  7  8  1  0
  8  9  1  0
  9 10  2  0
 10 11  1  0
 10 12  1  0
 12 13  1  0
 13 14  1  0
 14 15  1  0
 15 16  2  3
 15 17  1  0
  7  2  1  0
 17 12  1  0
 17  6  1  0
  1 18  1  0
  1 19  1  0
  6 20  1  6
  7 21  1  1
  8 22  1  0
  8 23  1  0
  9 24  1  0
 11 25  1  0
 11 26  1  0
 11 27  1  0
 12 28  1  1
 13 29  1  0
 13 30  1  0
 14 31  1  0
 14 32  1  0
 16 33  1  0
 16 34  1  0
 17 35  1  1
M  END

     RDKit          3D

 15 15  0  0  0  0  0  0  0  0999 V2000
    2.0633   -1.3408    0.3814 N   0  0  0  0  0  0  0  0  0  0  0  0
    1.4516   -0.1972    0.3892 C   0  0  0  0  0  0  0  0  0  0  0  0
    2.1806    0.9664    0.7893 N   0  0  0  0  0  0  0  0  0  0  0  0
    0.0243   -0.0905   -0.0046 C   0  0  0  0  0  0  0  0  0  0  0  0
   -0.7937    1.0177    0.1504 C   0  0  0  0  0  0  0  0  0  0  0  0
   -2.0290    0.6651   -0.3526 C   0  0  0  0  0  0  0  0  0  0  0  0
   -1.9993   -0.6004   -0.8054 N   0  0  0  0  0  0  0  0  0  0  0  0
   -0.7564   -1.0701   -0.5987 C   0  0  0  0  0  0  0  0  0  0  0  0
    1.6036   -2.2375    0.1114 H   0  0  0  0  0  0  0  0  0  0  0  0
    1.7541    1.9177    0.7642 H   0  0  0  0  0  0  0  0  0  0  0  0
    3.1778    0.8835    1.0886 H   0  0  0  0  0  0  0  0  0  0  0  0
   -0.5371    1.9730    0.5868 H   0  0  0  0  0  0  0  0  0  0  0  0
   -2.9037    1.3013   -0.3840 H   0  0  0  0  0  0  0  0  0  0  0  0
   -2.7936   -1.1212   -1.2387 H   0  0  0  0  0  0  0  0  0  0  0  0
   -0.4425   -2.0669   -0.8772 H   0  0  0  0  0  0  0  0  0  0  0  0
  1  2  2  3
  2  3  1  0
  2  4  1  0
  4  5  1  0
  5  6  2  0
  6  7  1  0
  7  8  1  0
  8  4  2  0
  1  9  1  0
  3 10  1  0
  3 11  1  0
  5 12  1  0
  6 13  1  0
  7 14  1  0
  8 15  1  0
M  END

     RDKit          3D

 30 31  0  0  0  0  0  0  0  0999 V2000
   -4.4102    2.1234   -0.4594 O   0  0  0  0  0  0  0  0  0  0  0  0
   -3.6560    0.9637   -0.2951 C   0  0  0  0  0  0  0  0  0  0  0  0
   -4.2458   -0.2819   -0.5332 C   0  0  0  0  0  0  0  0  0  0  0  0
   -3.4982   -1.4573   -0.3800 C   0  0  0  0  0  0  0  0  0  0  0  0
   -4.0753   -2.7018   -0.6225 O   0  0  0  0  0  0  0  0  0  0  0  0
   -2.1592   -1.3836    0.0180 C   0  0  0  0  0  0  0  0  0  0  0  0
   -1.5619   -0.1386    0.2738 C   0  0  0  0  0  0  0  0  0  0  0  0
   -0.1113   -0.0597    0.6674 C   0  0  0  0  0  0  0  0  0  0  0  0
    0.7785    0.0438   -0.5746 C   0  0  0  0  0  0  0  0  0  0  0  0
    2.2290    0.1229   -0.1812 C   0  0  0  0  0  0  0  0  0  0  0  0
    2.8265    1.3680    0.0770 C   0  0  0  0  0  0  0  0  0  0  0  0
    4.1655    1.4375    0.4742 C   0  0  0  0  0  0  0  0  0  0  0  0
    4.9131    0.2663    0.6257 C   0  0  0  0  0  0  0  0  0  0  0  0
    4.3216   -0.9768    0.3841 C   0  0  0  0  0  0  0  0  0  0  0  0
    2.9829   -1.0508   -0.0133 C   0  0  0  0  0  0  0  0  0  0  0  0
   -2.3140    1.0351    0.1036 C   0  0  0  0  0  0  0  0  0  0  0  0
   -4.0129    3.0411   -0.2958 H   0  0  0  0  0  0  0  0  0  0  0  0
   -5.2825   -0.3347   -0.8413 H   0  0  0  0  0  0  0  0  0  0  0  0
   -5.0422   -2.7898   -0.9126 H   0  0  0  0  0  0  0  0  0  0  0  0
   -1.5848   -2.2957    0.1259 H   0  0  0  0  0  0  0  0  0  0  0  0
    0.0534    0.8250    1.3216 H   0  0  0  0  0  0  0  0  0  0  0  0
    0.1687   -0.9619    1.2553 H   0  0  0  0  0  0  0  0  0  0  0  0
    0.4986    0.9460   -1.1625 H   0  0  0  0  0  0  0  0  0  0  0  0
    0.6140   -0.8411   -1.2287 H   0  0  0  0  0  0  0  0  0  0  0  0
    2.2555    2.2823   -0.0277 H   0  0  0  0  0  0  0  0  0  0  0  0
    4.6227    2.3992    0.6681 H   0  0  0  0  0  0  0  0  0  0  0  0
    5.9489    0.3218    0.9345 H   0  0  0  0  0  0  0  0  0  0  0  0
    4.8996   -1.8834    0.5082 H   0  0  0  0  0  0  0  0  0  0  0  0
    2.5337   -2.0206   -0.1882 H   0  0  0  0  0  0  0  0  0  0  0  0
   -1.8576    2.0018    0.2786 H   0  0  0  0  0  0  0  0  0  0  0  0
  1  2  1  0
  2  3  2  0
  3  4  1  0
  4  5  1  0
  4  6  2  0
  6  7  1  0
  7  8  1  0
  8  9  1  0
  9 10  1  0
 10 11  2  0
 11 12  1  0
 12 13  2  0
 13 14  1  0
 14 15  2  0
  7 16  2  0
 16  2  1  0
 15 10  1  0
  1 17  1  0
  3 18  1  0
  5 19  1  0
  6 20  1  0
  8 21  1  0
  8 22  1  0
  9 23  1  0
  9 24  1  0
 11 25  1  0
 12 26  1  0
 13 27  1  0
 14 28  1  0
 15 29  1  0
 16 30  1  0
M  END

     RDKit          3D

 46 49  0  0  0  0  0  0  0  0999 V2000
    5.4139   -0.6949    1.6445 C   0  0  0  0  0  0  0  0  0  0  0  0
    5.1202   -0.0464    0.4087 O   0  0  0  0  0  0  0  0  0  0  0  0
    3.8441    0.4291    0.0692 C   0  0  0  0  0  0  0  0  0  0  0  0
    3.7208    1.7291   -0.4374 C   0  0  0  0  0  0  0  0  0  0  0  0
    4.9397    2.5928   -0.6142 C   0  0  0  0  0  0  0  0  0  0  0  0
    2.5009    2.1974   -0.8153 N   0  0  0  0  0  0  0  0  0  0  0  0
    1.3619    1.4642   -0.6621 C   0  0  0  0  0  0  0  0  0  0  0  0
    0.1450    2.0012   -1.0950 C   0  0  0  0  0  0  0  0  0  0  0  0
   -1.0271    1.2677   -0.9922 C   0  0  0  0  0  0  0  0  0  0  0  0
   -1.0309    0.0031   -0.3928 C   0  0  0  0  0  0  0  0  0  0  0  0
    0.1765   -0.5332    0.1317 C   0  0  0  0  0  0  0  0  0  0  0  0
    1.4092    0.1638   -0.0919 C   0  0  0  0  0  0  0  0  0  0  0  0
    2.6932   -0.3732    0.1911 C   0  0  0  0  0  0  0  0  0  0  0  0
    2.8364   -1.5901    0.4770 O   0  0  0  0  0  0  0  0  0  0  0  0
    0.0622   -1.8037    0.9608 C   0  0  0  0  0  0  0  0  0  0  0  0
   -0.1382   -3.0522    0.0850 C   0  0  0  0  0  0  0  0  0  0  0  0
   -1.1408   -2.8530   -1.0707 C   0  0  0  0  0  0  0  0  0  0  0  0
   -2.3602   -2.0737   -0.6467 C   0  0  0  0  0  0  0  0  0  0  0  0
   -2.3181   -0.7582   -0.3413 C   0  0  0  0  0  0  0  0  0  0  0  0
   -3.5603   -0.0595    0.0879 C   0  0  0  0  0  0  0  0  0  0  0  0
   -4.7869   -0.2897   -0.5635 C   0  0  0  0  0  0  0  0  0  0  0  0
   -5.9443    0.3778   -0.1482 C   0  0  0  0  0  0  0  0  0  0  0  0
   -5.8885    1.2772    0.9198 C   0  0  0  0  0  0  0  0  0  0  0  0
   -4.6765    1.5171    1.5706 C   0  0  0  0  0  0  0  0  0  0  0  0
   -3.5177    0.8521    1.1604 C   0  0  0  0  0  0  0  0  0  0  0  0
    5.0774   -0.0598    2.4922 H   0  0  0  0  0  0  0  0  0  0  0  0
    6.5097   -0.8387    1.7246 H   0  0  0  0  0  0  0  0  0  0  0  0
    4.9314   -1.6916    1.7004 H   0  0  0  0  0  0  0  0  0  0  0  0
    4.6561    3.6507   -0.7900 H   0  0  0  0  0  0  0  0  0  0  0  0
    5.5719    2.5593    0.2984 H   0  0  0  0  0  0  0  0  0  0  0  0
    5.5275    2.2302   -1.4826 H   0  0  0  0  0  0  0  0  0  0  0  0
    2.4383    3.1529   -1.2364 H   0  0  0  0  0  0  0  0  0  0  0  0
    0.1070    2.9858   -1.5473 H   0  0  0  0  0  0  0  0  0  0  0  0
   -1.9412    1.6884   -1.3916 H   0  0  0  0  0  0  0  0  0  0  0  0
   -0.8117   -1.7024    1.6425 H   0  0  0  0  0  0  0  0  0  0  0  0
    0.9017   -1.9472    1.6669 H   0  0  0  0  0  0  0  0  0  0  0  0
   -0.5007   -3.8773    0.7345 H   0  0  0  0  0  0  0  0  0  0  0  0
    0.8384   -3.3681   -0.3379 H   0  0  0  0  0  0  0  0  0  0  0  0
   -0.6451   -2.3330   -1.9192 H   0  0  0  0  0  0  0  0  0  0  0  0
   -1.4563   -3.8510   -1.4430 H   0  0  0  0  0  0  0  0  0  0  0  0
   -3.2971   -2.6152   -0.5911 H   0  0  0  0  0  0  0  0  0  0  0  0
   -4.8472   -0.9717   -1.4027 H   0  0  0  0  0  0  0  0  0  0  0  0
   -6.8833    0.1987   -0.6564 H   0  0  0  0  0  0  0  0  0  0  0  0
   -6.7870    1.7852    1.2452 H   0  0  0  0  0  0  0  0  0  0  0  0
   -4.6345    2.2174    2.3957 H   0  0  0  0  0  0  0  0  0  0  0  0
   -2.5898    1.0425    1.6855 H   0  0  0  0  0  0  0  0  0  0  0  0
  1  2  1  0
  2  3  1  0
  3  4  2  0
  4  5  1  0
  4  6  1  0
  6  7  1  0
  7  8  2  0
  8  9  1  0
  9 10  2  0
 10 11  1  0
 11 12  2  0
 12 13  1  0
 13 14  2  0
 11 15  1  0
 15 16  1  0
 16 17  1  0
 17 18  1  0
 18 19  2  0
 19 20  1  0
 20 21  2  0
 21 22  1  0
 22 23  2  0
 23 24  1  0
 24 25  2  0
 13  3  1  0
 25 20  1  0
 12  7  1  0
 19 10  1  0
  1 26  1  0
  1 27  1  0
  1 28  1  0
  5 29  1  0
  5 30  1  0
  5 31  1  0
  6 32  1  0
  8 33  1  0
  9 34  1  0
 15 35  1  0
 15 36  1  0
 16 37  1  0
 16 38  1  0
 17 39  1  0
 17 40  1  0
 18 41  1  0
 21 42  1  0
 22 43  1  0
 23 44  1  0
 24 45  1  0
 25 46  1  0
M  END

     RDKit          3D

 37 40  0  0  0  0  0  0  0  0999 V2000
   -4.8712   -1.4539    1.6525 C   0  0  0  0  0  0  0  0  0  0  0  0
   -4.3319   -0.5331    0.7087 O   0  0  0  0  0  0  0  0  0  0  0  0
   -2.9612   -0.3319    0.4829 C   0  0  0  0  0  0  0  0  0  0  0  0
   -1.9799   -1.0770    1.1664 C   0  0  0  0  0  0  0  0  0  0  0  0
   -0.6178   -0.8352    0.9371 C   0  0  0  0  0  0  0  0  0  0  0  0
    0.4025   -1.5443    1.6002 C   0  0  0  0  0  0  0  0  0  0  0  0
    0.1218   -2.4563    2.4232 O   0  0  0  0  0  0  0  0  0  0  0  0
    1.6816   -1.2533    1.3699 O   0  0  0  0  0  0  0  0  0  0  0  0
    2.0732   -0.3130    0.5115 C   0  0  0  0  0  0  0  0  0  0  0  0
    3.4399   -0.0423    0.3113 C   0  0  0  0  0  0  0  0  0  0  0  0
    4.4335   -0.7685    0.9822 O   0  0  0  0  0  0  0  0  0  0  0  0
    4.5650   -2.1819    0.8872 C   0  0  0  0  0  0  0  0  0  0  0  0
    3.8195    1.0098   -0.5427 C   0  0  0  0  0  0  0  0  0  0  0  0
    5.1701    1.3228   -0.6896 O   0  0  0  0  0  0  0  0  0  0  0  0
    2.8469    1.7537   -1.2339 C   0  0  0  0  0  0  0  0  0  0  0  0
    1.4841    1.4598   -1.0708 C   0  0  0  0  0  0  0  0  0  0  0  0
    0.4613    2.1693   -1.7331 C   0  0  0  0  0  0  0  0  0  0  0  0
    0.7376    3.0978   -2.5401 O   0  0  0  0  0  0  0  0  0  0  0  0
   -0.8175    1.8650   -1.5126 O   0  0  0  0  0  0  0  0  0  0  0  0
   -1.2081    0.9026   -0.6786 C   0  0  0  0  0  0  0  0  0  0  0  0
   -2.5770    0.6376   -0.4626 C   0  0  0  0  0  0  0  0  0  0  0  0
   -3.5869    1.3265   -1.1498 O   0  0  0  0  0  0  0  0  0  0  0  0
   -3.5619    1.5967   -2.5496 C   0  0  0  0  0  0  0  0  0  0  0  0
   -0.2427    0.1581    0.0211 C   0  0  0  0  0  0  0  0  0  0  0  0
    1.1091    0.4325   -0.1910 C   0  0  0  0  0  0  0  0  0  0  0  0
   -4.5779   -2.4902    1.3805 H   0  0  0  0  0  0  0  0  0  0  0  0
   -5.9780   -1.3798    1.6391 H   0  0  0  0  0  0  0  0  0  0  0  0
   -4.5212   -1.2077    2.6781 H   0  0  0  0  0  0  0  0  0  0  0  0
   -2.2735   -1.8443    1.8690 H   0  0  0  0  0  0  0  0  0  0  0  0
    4.8287   -2.4600   -0.1601 H   0  0  0  0  0  0  0  0  0  0  0  0
    5.3890   -2.5017    1.5648 H   0  0  0  0  0  0  0  0  0  0  0  0
    3.6357   -2.7119    1.1824 H   0  0  0  0  0  0  0  0  0  0  0  0
    5.4773    2.0838   -1.2866 H   0  0  0  0  0  0  0  0  0  0  0  0
    3.1572    2.5614   -1.8867 H   0  0  0  0  0  0  0  0  0  0  0  0
   -3.3560    0.6605   -3.1195 H   0  0  0  0  0  0  0  0  0  0  0  0
   -4.5564    1.9797   -2.8448 H   0  0  0  0  0  0  0  0  0  0  0  0
   -2.8146    2.3684   -2.8095 H   0  0  0  0  0  0  0  0  0  0  0  0
  1  2  1  0
  2  3  1  0
  3  4  2  0
  4  5  1  0
  5  6  1  0
  6  7  2  0
  6  8  1  0
  8  9  1  0
  9 10  1  0
 10 11  1  0
 11 12  1  0
 10 13  2  0
 13 14  1  0
 13 15  1  0
 15 16  2  0
 16 17  1  0
 17 18  2  0
 17 19  1  0
 19 20  1  0
 20 21  2  0
 21 22  1  0
 22 23  1  0
 20 24  1  0
 24 25  1  0
 21  3  1  0
 24  5  2  0
 25  9  2  0
 25 16  1  0
  1 26  1  0
  1 27  1  0
  1 28  1  0
  4 29  1  0
 12 30  1  0
 12 31  1  0
 12 32  1  0
 14 33  1  0
 15 34  1  0
 23 35  1  0
 23 36  1  0
 23 37  1  0
M  END

     RDKit          3D

 26 27  0  0  0  0  0  0  0  0999 V2000
    2.7841   -0.7392    0.2739 C   0  0  0  0  0  0  0  0  0  0  0  0
    1.5004   -0.0063    0.0258 C   0  0  0  0  0  0  0  0  0  0  0  0
    1.3369    1.2930    0.4111 C   0  0  0  0  0  0  0  0  0  0  0  0
   -0.0195    1.9786    0.1513 C   0  0  0  0  0  0  0  0  0  0  0  0
   -0.9872    0.9921   -0.5899 C   0  0  1  0  0  0  0  0  0  0  0  0
   -0.1555    0.3672   -1.7285 C   0  0  0  0  0  0  0  0  0  0  0  0
    0.3143   -0.6696   -0.6891 C   0  0  2  0  0  0  0  0  0  0  0  0
   -0.9863   -0.3945    0.1109 C   0  0  0  0  0  0  0  0  0  0  0  0
   -0.9229   -0.4443    1.6635 C   0  0  0  0  0  0  0  0  0  0  0  0
   -2.1638   -1.2873   -0.3560 C   0  0  0  0  0  0  0  0  0  0  0  0
    2.9866   -0.7794    1.3648 H   0  0  0  0  0  0  0  0  0  0  0  0
    3.6197   -0.2149   -0.2355 H   0  0  0  0  0  0  0  0  0  0  0  0
    2.7241   -1.7770   -0.1153 H   0  0  0  0  0  0  0  0  0  0  0  0
    2.1333    1.8329    0.9140 H   0  0  0  0  0  0  0  0  0  0  0  0
    0.1426    2.8806   -0.4760 H   0  0  0  0  0  0  0  0  0  0  0  0
   -0.4698    2.3044    1.1123 H   0  0  0  0  0  0  0  0  0  0  0  0
   -1.9759    1.4057   -0.8845 H   0  0  0  0  0  0  0  0  0  0  0  0
    0.6383    1.0158   -2.1676 H   0  0  0  0  0  0  0  0  0  0  0  0
   -0.7837   -0.0778   -2.5302 H   0  0  0  0  0  0  0  0  0  0  0  0
    0.4657   -1.7037   -1.0676 H   0  0  0  0  0  0  0  0  0  0  0  0
   -1.8696   -0.0449    2.0850 H   0  0  0  0  0  0  0  0  0  0  0  0
   -0.8099   -1.4979    1.9961 H   0  0  0  0  0  0  0  0  0  0  0  0
   -0.0959    0.1242    2.1251 H   0  0  0  0  0  0  0  0  0  0  0  0
   -2.0015   -2.3337   -0.0201 H   0  0  0  0  0  0  0  0  0  0  0  0
   -2.2896   -1.3054   -1.4572 H   0  0  0  0  0  0  0  0  0  0  0  0
   -3.1150   -0.9186    0.0837 H   0  0  0  0  0  0  0  0  0  0  0  0
  1  2  1  0
  2  3  2  0
  3  4  1  0
  4  5  1  0
  5  6  1  0
  6  7  1  0
  7  8  1  0
  8  9  1  0
  8 10  1  0
  7  2  1  0
  8  5  1  0
  1 11  1  0
  1 12  1  0
  1 13  1  0
  3 14  1  0
  4 15  1  0
  4 16  1  0
  5 17  1  6
  6 18  1  0
  6 19  1  0
  7 20  1  6
  9 21  1  0
  9 22  1  0
  9 23  1  0
 10 24  1  0
 10 25  1  0
 10 26  1  0
M  END

     RDKit          3D

 26 26  0  0  0  0  0  0  0  0999 V2000
    3.6837    0.3831   -0.2297 C   0  0  0  0  0  0  0  0  0  0  0  0
    2.2610   -0.0292    0.0261 C   0  0  0  0  0  0  0  0  0  0  0  0
    1.5376    0.6019    0.9705 C   0  0  0  0  0  0  0  0  0  0  0  0
    0.1221    0.1737    1.2672 C   0  0  0  0  0  0  0  0  0  0  0  0
   -0.5738   -0.3380    0.0162 C   0  0  0  0  0  0  0  0  0  0  0  0
   -2.0652   -0.1255   -0.1901 C   0  0  0  0  0  0  0  0  0  0  0  0
   -2.3665    1.3455   -0.4956 C   0  0  0  0  0  0  0  0  0  0  0  0
   -2.8695   -0.6128    1.0208 C   0  0  0  0  0  0  0  0  0  0  0  0
    0.1587   -0.9669   -0.9286 C   0  0  0  0  0  0  0  0  0  0  0  0
    1.6426   -1.1739   -0.7486 C   0  0  0  0  0  0  0  0  0  0  0  0
    3.7122    1.4385   -0.5737 H   0  0  0  0  0  0  0  0  0  0  0  0
    4.1503   -0.2561   -1.0084 H   0  0  0  0  0  0  0  0  0  0  0  0
    4.2770    0.2870    0.7041 H   0  0  0  0  0  0  0  0  0  0  0  0
    1.9732    1.4159    1.5437 H   0  0  0  0  0  0  0  0  0  0  0  0
    0.1526   -0.6474    2.0143 H   0  0  0  0  0  0  0  0  0  0  0  0
   -0.4292    1.0266    1.7135 H   0  0  0  0  0  0  0  0  0  0  0  0
   -2.4106   -0.7206   -1.0655 H   0  0  0  0  0  0  0  0  0  0  0  0
   -2.1192    1.9951    0.3702 H   0  0  0  0  0  0  0  0  0  0  0  0
   -1.7763    1.6800   -1.3755 H   0  0  0  0  0  0  0  0  0  0  0  0
   -3.4444    1.4708   -0.7336 H   0  0  0  0  0  0  0  0  0  0  0  0
   -2.6478   -0.0032    1.9224 H   0  0  0  0  0  0  0  0  0  0  0  0
   -2.6269   -1.6754    1.2361 H   0  0  0  0  0  0  0  0  0  0  0  0
   -3.9575   -0.5416    0.8074 H   0  0  0  0  0  0  0  0  0  0  0  0
   -0.3088   -1.3358   -1.8371 H   0  0  0  0  0  0  0  0  0  0  0  0
    1.8046   -2.1156   -0.1827 H   0  0  0  0  0  0  0  0  0  0  0  0
    2.1202   -1.2760   -1.7462 H   0  0  0  0  0  0  0  0  0  0  0  0
  1  2  1  0
  2  3  2  0
  3  4  1  0
  4  5  1  0
  5  6  1  0
  6  7  1  0
  6  8  1  0
  5  9  2  0
  9 10  1  0
 10  2  1  0
  1 11  1  0
  1 12  1  0
  1 13  1  0
  3 14  1  0
  4 15  1  0
  4 16  1  0
  6 17  1  0
  7 18  1  0
  7 19  1  0
  7 20  1  0
  8 21  1  0
  8 22  1  0
  8 23  1  0
  9 24  1  0
 10 25  1  0
 10 26  1  0
M  END

     RDKit          3D

 25 25  0  0  0  0  0  0  0  0999 V2000
    3.8041    0.3971   -0.3045 C   0  0  0  0  0  0  0  0  0  0  0  0
    2.3230    0.1995   -0.1714 C   0  0  0  0  0  0  0  0  0  0  0  0
    1.4616    0.6117   -1.1953 C   0  0  0  0  0  0  0  0  0  0  0  0
    0.0803    0.4620   -1.0579 C   0  0  0  0  0  0  0  0  0  0  0  0
   -0.4715   -0.0927    0.1137 C   0  0  0  0  0  0  0  0  0  0  0  0
   -1.9792   -0.2490    0.2494 C   0  0  0  0  0  0  0  0  0  0  0  0
   -2.5375   -1.1867   -0.8283 C   0  0  0  0  0  0  0  0  0  0  0  0
   -2.6811    1.1139    0.2112 C   0  0  0  0  0  0  0  0  0  0  0  0
    0.3983   -0.4888    1.1540 C   0  0  0  0  0  0  0  0  0  0  0  0
   -0.1106   -1.0321    2.3339 O   0  0  0  0  0  0  0  0  0  0  0  0
    1.7850   -0.3350    1.0067 C   0  0  0  0  0  0  0  0  0  0  0  0
    4.1144    0.3338   -1.3693 H   0  0  0  0  0  0  0  0  0  0  0  0
    4.0806    1.3953    0.0946 H   0  0  0  0  0  0  0  0  0  0  0  0
    4.3558   -0.3845    0.2601 H   0  0  0  0  0  0  0  0  0  0  0  0
    1.8594    1.0492   -2.1027 H   0  0  0  0  0  0  0  0  0  0  0  0
   -0.5589    0.7844   -1.8694 H   0  0  0  0  0  0  0  0  0  0  0  0
   -2.2303   -0.7085    1.2294 H   0  0  0  0  0  0  0  0  0  0  0  0
   -2.0134   -2.1656   -0.7892 H   0  0  0  0  0  0  0  0  0  0  0  0
   -2.4137   -0.7529   -1.8431 H   0  0  0  0  0  0  0  0  0  0  0  0
   -3.6198   -1.3657   -0.6526 H   0  0  0  0  0  0  0  0  0  0  0  0
   -2.5563    1.6032   -0.7779 H   0  0  0  0  0  0  0  0  0  0  0  0
   -3.7675    0.9877    0.4065 H   0  0  0  0  0  0  0  0  0  0  0  0
   -2.2626    1.7791    0.9967 H   0  0  0  0  0  0  0  0  0  0  0  0
    0.4960   -1.3218    3.0922 H   0  0  0  0  0  0  0  0  0  0  0  0
    2.4440   -0.6337    1.8130 H   0  0  0  0  0  0  0  0  0  0  0  0
  1  2  1  0
  2  3  2  0
  3  4  1  0
  4  5  2  0
  5  6  1  0
  6  7  1  0
  6  8  1  0
  5  9  1  0
  9 10  1  0
  9 11  2  0
 11  2  1  0
  1 12  1  0
  1 13  1  0
  1 14  1  0
  3 15  1  0
  4 16  1  0
  6 17  1  0
  7 18  1  0
  7 19  1  0
  7 20  1  0
  8 21  1  0
  8 22  1  0
  8 23  1  0
 10 24  1  0
 11 25  1  0
M  END

     RDKit          3D

 29 29  0  0  0  0  0  0  0  0999 V2000
    3.9080   -0.4507   -0.0857 C   0  0  0  0  0  0  0  0  0  0  0  0
    2.4151   -0.2683   -0.1094 C   0  0  0  0  0  0  0  0  0  0  0  0
    1.6239   -1.3515   -0.2407 C   0  0  0  0  0  0  0  0  0  0  0  0
    0.1195   -1.2698   -0.3216 C   0  0  0  0  0  0  0  0  0  0  0  0
   -0.4529    0.0438    0.2688 C   0  0  2  0  0  0  0  0  0  0  0  0
   -1.9985    0.2251    0.0187 C   0  0  0  0  0  0  0  0  0  0  0  0
   -2.7879   -1.0661    0.3446 C   0  0  0  0  0  0  0  0  0  0  0  0
   -2.5536    1.3404    0.9298 C   0  0  0  0  0  0  0  0  0  0  0  0
   -2.2490    0.6074   -1.3145 O   0  0  0  0  0  0  0  0  0  0  0  0
    0.3737    1.2273   -0.2819 C   0  0  0  0  0  0  0  0  0  0  0  0
    1.8404    1.1074    0.1442 C   0  0  0  0  0  0  0  0  0  0  0  0
    4.1905   -1.1554    0.7250 H   0  0  0  0  0  0  0  0  0  0  0  0
    4.4251    0.5154    0.0947 H   0  0  0  0  0  0  0  0  0  0  0  0
    4.2512   -0.8580   -1.0601 H   0  0  0  0  0  0  0  0  0  0  0  0
    2.0789   -2.3267   -0.3942 H   0  0  0  0  0  0  0  0  0  0  0  0
   -0.2886   -2.1397    0.2349 H   0  0  0  0  0  0  0  0  0  0  0  0
   -0.1649   -1.3755   -1.3888 H   0  0  0  0  0  0  0  0  0  0  0  0
   -0.2913   -0.0031    1.3705 H   0  0  0  0  0  0  0  0  0  0  0  0
   -2.5391   -1.8822   -0.3655 H   0  0  0  0  0  0  0  0  0  0  0  0
   -3.8816   -0.8886    0.2582 H   0  0  0  0  0  0  0  0  0  0  0  0
   -2.5655   -1.4089    1.3781 H   0  0  0  0  0  0  0  0  0  0  0  0
   -2.3235    1.1328    1.9971 H   0  0  0  0  0  0  0  0  0  0  0  0
   -3.6569    1.4196    0.8206 H   0  0  0  0  0  0  0  0  0  0  0  0
   -2.1386    2.3318    0.6595 H   0  0  0  0  0  0  0  0  0  0  0  0
   -2.0036   -0.1481   -1.9079 H   0  0  0  0  0  0  0  0  0  0  0  0
    0.3157    1.2480   -1.3927 H   0  0  0  0  0  0  0  0  0  0  0  0
   -0.0070    2.1965    0.0967 H   0  0  0  0  0  0  0  0  0  0  0  0
    1.9267    1.3300    1.2298 H   0  0  0  0  0  0  0  0  0  0  0  0
    2.4338    1.8674   -0.4086 H   0  0  0  0  0  0  0  0  0  0  0  0
  1  2  1  0
  2  3  2  0
  3  4  1  0
  4  5  1  0
  5  6  1  0
  6  7  1  0
  6  8  1  0
  6  9  1  0
  5 10  1  0
 10 11  1  0
 11  2  1  0
  1 12  1  0
  1 13  1  0
  1 14  1  0
  3 15  1  0
  4 16  1  0
  4 17  1  0
  5 18  1  1
  7 19  1  0
  7 20  1  0
  7 21  1  0
  8 22  1  0
  8 23  1  0
  8 24  1  0
  9 25  1  0
 10 26  1  0
 10 27  1  0
 11 28  1  0
 11 29  1  0
M  END

     RDKit          3D

 26 27  0  0  0  0  0  0  0  0999 V2000
    0.3650    2.2918   -0.6681 C   0  0  0  0  0  0  0  0  0  0  0  0
    0.3071    1.0808   -0.1015 C   0  0  0  0  0  0  0  0  0  0  0  0
    1.4404    0.4093    0.6269 C   0  0  2  0  0  0  0  0  0  0  0  0
    1.9768   -0.7087   -0.2844 C   0  0  0  0  0  0  0  0  0  0  0  0
    0.8601   -1.7726   -0.2202 C   0  0  0  0  0  0  0  0  0  0  0  0
   -0.2278   -1.0793    0.6355 C   0  0  1  0  0  0  0  0  0  0  0  0
    0.6688   -0.3863    1.6562 C   0  0  0  0  0  0  0  0  0  0  0  0
   -0.8665    0.1309   -0.1328 C   0  0  0  0  0  0  0  0  0  0  0  0
   -1.2981   -0.2024   -1.5794 C   0  0  0  0  0  0  0  0  0  0  0  0
   -2.0789    0.7047    0.6338 C   0  0  0  0  0  0  0  0  0  0  0  0
    1.2721    2.8842   -0.6058 H   0  0  0  0  0  0  0  0  0  0  0  0
   -0.4924    2.6958   -1.1960 H   0  0  0  0  0  0  0  0  0  0  0  0
    2.2095    1.0933    1.0459 H   0  0  0  0  0  0  0  0  0  0  0  0
    2.1422   -0.3496   -1.3243 H   0  0  0  0  0  0  0  0  0  0  0  0
    2.9290   -1.1159    0.1210 H   0  0  0  0  0  0  0  0  0  0  0  0
    1.2295   -2.6806    0.3068 H   0  0  0  0  0  0  0  0  0  0  0  0
    0.5108   -2.0906   -1.2227 H   0  0  0  0  0  0  0  0  0  0  0  0
   -0.9617   -1.7873    1.0777 H   0  0  0  0  0  0  0  0  0  0  0  0
    1.3132   -1.0940    2.2295 H   0  0  0  0  0  0  0  0  0  0  0  0
    0.1265    0.2560    2.3832 H   0  0  0  0  0  0  0  0  0  0  0  0
   -1.9200   -1.1227   -1.5906 H   0  0  0  0  0  0  0  0  0  0  0  0
   -1.8960    0.6280   -2.0124 H   0  0  0  0  0  0  0  0  0  0  0  0
   -0.4240   -0.3422   -2.2493 H   0  0  0  0  0  0  0  0  0  0  0  0
   -2.8794   -0.0621    0.7064 H   0  0  0  0  0  0  0  0  0  0  0  0
   -1.8153    1.0291    1.6602 H   0  0  0  0  0  0  0  0  0  0  0  0
   -2.4911    1.5904    0.1046 H   0  0  0  0  0  0  0  0  0  0  0  0
  1  2  2  3
  2  3  1  0
  3  4  1  0
  4  5  1  0
  5  6  1  0
  6  7  1  0
  6  8  1  0
  8  9  1  0
  8 10  1  0
  8  2  1  0
  7  3  1  0
  1 11  1  0
  1 12  1  0
  3 13  1  1
  4 14  1  0
  4 15  1  0
  5 16  1  0
  5 17  1  0
  6 18  1  1
  7 19  1  0
  7 20  1  0
  9 21  1  0
  9 22  1  0
  9 23  1  0
 10 24  1  0
 10 25  1  0
 10 26  1  0
M  END

     RDKit          3D

 24 24  0  0  0  0  0  0  0  0999 V2000
    3.8352   -0.0996    0.0678 C   0  0  0  0  0  0  0  0  0  0  0  0
    2.3419   -0.0432   -0.0612 C   0  0  0  0  0  0  0  0  0  0  0  0
    1.5426    0.1763    1.0696 C   0  0  0  0  0  0  0  0  0  0  0  0
    0.1495    0.1923    0.9572 C   0  0  0  0  0  0  0  0  0  0  0  0
   -0.4693   -0.0239   -0.2887 C   0  0  0  0  0  0  0  0  0  0  0  0
   -1.9803   -0.0110   -0.4261 C   0  0  0  0  0  0  0  0  0  0  0  0
   -2.6200   -1.1293    0.4052 C   0  0  0  0  0  0  0  0  0  0  0  0
   -2.5583    1.3577   -0.0474 C   0  0  0  0  0  0  0  0  0  0  0  0
    0.3371   -0.2623   -1.4153 C   0  0  0  0  0  0  0  0  0  0  0  0
    1.7303   -0.2779   -1.3009 C   0  0  0  0  0  0  0  0  0  0  0  0
    4.1833    0.5672    0.8853 H   0  0  0  0  0  0  0  0  0  0  0  0
    4.3227    0.2298   -0.8745 H   0  0  0  0  0  0  0  0  0  0  0  0
    4.1472   -1.1409    0.2922 H   0  0  0  0  0  0  0  0  0  0  0  0
    1.9978    0.3359    2.0394 H   0  0  0  0  0  0  0  0  0  0  0  0
   -0.4442    0.3700    1.8444 H   0  0  0  0  0  0  0  0  0  0  0  0
   -2.2568   -0.1970   -1.4881 H   0  0  0  0  0  0  0  0  0  0  0  0
   -3.7146   -1.1629    0.2184 H   0  0  0  0  0  0  0  0  0  0  0  0
   -2.1886   -2.1119    0.1171 H   0  0  0  0  0  0  0  0  0  0  0  0
   -2.4525   -0.9677    1.4912 H   0  0  0  0  0  0  0  0  0  0  0  0
   -3.6513    1.3766   -0.2456 H   0  0  0  0  0  0  0  0  0  0  0  0
   -2.0814    2.1543   -0.6577 H   0  0  0  0  0  0  0  0  0  0  0  0
   -2.3915    1.5803    1.0279 H   0  0  0  0  0  0  0  0  0  0  0  0
   -0.1106   -0.4402   -2.3851 H   0  0  0  0  0  0  0  0  0  0  0  0
    2.3319   -0.4726   -2.1802 H   0  0  0  0  0  0  0  0  0  0  0  0
  1  2  1  0
  2  3  2  0
  3  4  1  0
  4  5  2  0
  5  6  1  0
  6  7  1  0
  6  8  1  0
  5  9  1  0
  9 10  2  0
 10  2  1  0
  1 11  1  0
  1 12  1  0
  1 13  1  0
  3 14  1  0
  4 15  1  0
  6 16  1  0
  7 17  1  0
  7 18  1  0
  7 19  1  0
  8 20  1  0
  8 21  1  0
  8 22  1  0
  9 23  1  0
 10 24  1  0
M  END

     RDKit          3D

 39 41  0  0  0  0  0  0  0  0999 V2000
   -2.0123   -2.2147    1.9640 C   0  0  0  0  0  0  0  0  0  0  0  0
   -1.8229   -1.2556    0.8272 C   0  0  0  0  0  0  0  0  0  0  0  0
   -2.6635   -1.2537   -0.2407 C   0  0  0  0  0  0  0  0  0  0  0  0
   -2.4343   -0.2338   -1.3620 C   0  0  0  0  0  0  0  0  0  0  0  0
   -1.1729    0.6391   -1.0545 C   0  0  2  0  0  0  0  0  0  0  0  0
   -0.0435   -0.3171   -0.6064 C   0  0  1  0  0  0  0  0  0  0  0  0
    1.3365    0.4131   -0.6741 C   0  0  2  0  0  0  0  0  0  0  0  0
    2.5372   -0.5400   -0.3679 C   0  0  0  0  0  0  0  0  0  0  0  0
    3.8818    0.2053   -0.4722 C   0  0  0  0  0  0  0  0  0  0  0  0
    2.5754   -1.7575   -1.3113 C   0  0  0  0  0  0  0  0  0  0  0  0
    1.3399    1.6574    0.2748 C   0  0  0  0  0  0  0  0  0  0  0  0
   -0.0722    2.2284    0.5593 C   0  0  0  0  0  0  0  0  0  0  0  0
   -1.1880    1.1558    0.4027 C   0  0  1  0  0  0  0  0  0  0  0  0
   -2.5237    1.6602    0.9993 C   0  0  0  0  0  0  0  0  0  0  0  0
   -0.6695   -0.2483    0.8079 C   0  0  1  0  0  0  0  0  0  0  0  0
   -1.9439   -3.2575    1.5897 H   0  0  0  0  0  0  0  0  0  0  0  0
   -3.0092   -2.0552    2.4255 H   0  0  0  0  0  0  0  0  0  0  0  0
   -1.2337   -2.0633    2.7403 H   0  0  0  0  0  0  0  0  0  0  0  0
   -3.4983   -1.9455   -0.2973 H   0  0  0  0  0  0  0  0  0  0  0  0
   -3.3281    0.4160   -1.4679 H   0  0  0  0  0  0  0  0  0  0  0  0
   -2.2841   -0.7747   -2.3202 H   0  0  0  0  0  0  0  0  0  0  0  0
   -0.9157    1.3767   -1.8469 H   0  0  0  0  0  0  0  0  0  0  0  0
   -0.0723   -1.3031   -1.1179 H   0  0  0  0  0  0  0  0  0  0  0  0
    1.4600    0.7829   -1.7172 H   0  0  0  0  0  0  0  0  0  0  0  0
    2.4382   -0.9215    0.6728 H   0  0  0  0  0  0  0  0  0  0  0  0
    4.0026    0.6517   -1.4826 H   0  0  0  0  0  0  0  0  0  0  0  0
    3.9553    1.0090    0.2888 H   0  0  0  0  0  0  0  0  0  0  0  0
    4.7280   -0.4902   -0.2861 H   0  0  0  0  0  0  0  0  0  0  0  0
    3.5376   -2.3042   -1.2111 H   0  0  0  0  0  0  0  0  0  0  0  0
    2.4593   -1.4397   -2.3696 H   0  0  0  0  0  0  0  0  0  0  0  0
    1.7804   -2.4856   -1.0521 H   0  0  0  0  0  0  0  0  0  0  0  0
    1.7816    1.3727    1.2555 H   0  0  0  0  0  0  0  0  0  0  0  0
    1.9825    2.4582   -0.1515 H   0  0  0  0  0  0  0  0  0  0  0  0
   -0.0868    2.6455    1.5902 H   0  0  0  0  0  0  0  0  0  0  0  0
   -0.2764    3.0699   -0.1388 H   0  0  0  0  0  0  0  0  0  0  0  0
   -3.3580    0.9382    0.9245 H   0  0  0  0  0  0  0  0  0  0  0  0
   -2.8331    2.5906    0.4784 H   0  0  0  0  0  0  0  0  0  0  0  0
   -2.3844    1.8897    2.0767 H   0  0  0  0  0  0  0  0  0  0  0  0
    0.0304   -0.2995    1.6705 H   0  0  0  0  0  0  0  0  0  0  0  0
  1  2  1  0
  2  3  2  0
  3  4  1  0
  4  5  1  0
  5  6  1  0
  6  7  1  0
  7  8  1  0
  8  9  1  0
  8 10  1  0
  7 11  1  0
 11 12  1  0
 12 13  1  0
 13 14  1  1
 13 15  1  0
 15  2  1  0
 13  5  1  0
 15  6  1  0
  1 16  1  0
  1 17  1  0
  1 18  1  0
  3 19  1  0
  4 20  1  0
  4 21  1  0
  5 22  1  6
  6 23  1  6
  7 24  1  6
  8 25  1  0
  9 26  1  0
  9 27  1  0
  9 28  1  0
 10 29  1  0
 10 30  1  0
 10 31  1  0
 11 32  1  0
 11 33  1  0
 12 34  1  0
 12 35  1  0
 14 36  1  0
 14 37  1  0
 14 38  1  0
 15 39  1  1
M  END

     RDKit          3D

 28 29  0  0  0  0  0  0  0  0999 V2000
    4.5989    0.4797   -0.1327 C   0  0  0  0  0  0  0  0  0  0  0  0
    3.7859    1.6060   -0.2876 C   0  0  0  0  0  0  0  0  0  0  0  0
    2.4116    1.4551   -0.4976 C   0  0  0  0  0  0  0  0  0  0  0  0
    1.8429    0.1720   -0.5638 C   0  0  0  0  0  0  0  0  0  0  0  0
    0.3590    0.0081   -0.7545 C   0  0  0  0  0  0  0  0  0  0  0  0
   -0.3591   -0.0079    0.5980 C   0  0  0  0  0  0  0  0  0  0  0  0
   -1.8429   -0.1719    0.4072 C   0  0  0  0  0  0  0  0  0  0  0  0
   -2.4117   -1.4550    0.3420 C   0  0  0  0  0  0  0  0  0  0  0  0
   -3.7860   -1.6061    0.1320 C   0  0  0  0  0  0  0  0  0  0  0  0
   -4.5989   -0.4799   -0.0239 C   0  0  0  0  0  0  0  0  0  0  0  0
   -4.0382    0.7994    0.0258 C   0  0  0  0  0  0  0  0  0  0  0  0
   -2.6643    0.9550    0.2356 C   0  0  0  0  0  0  0  0  0  0  0  0
    2.6644   -0.9550   -0.3932 C   0  0  0  0  0  0  0  0  0  0  0  0
    4.0382   -0.7995   -0.1834 C   0  0  0  0  0  0  0  0  0  0  0  0
    5.6622    0.5983    0.0310 H   0  0  0  0  0  0  0  0  0  0  0  0
    4.2202    2.5964   -0.2415 H   0  0  0  0  0  0  0  0  0  0  0  0
    1.7912    2.3360   -0.6068 H   0  0  0  0  0  0  0  0  0  0  0  0
   -0.0342    0.8414   -1.3781 H   0  0  0  0  0  0  0  0  0  0  0  0
    0.1524   -0.9392   -1.3002 H   0  0  0  0  0  0  0  0  0  0  0  0
   -0.1526    0.9394    1.1436 H   0  0  0  0  0  0  0  0  0  0  0  0
    0.0342   -0.8411    1.2216 H   0  0  0  0  0  0  0  0  0  0  0  0
   -1.7912   -2.3359    0.4520 H   0  0  0  0  0  0  0  0  0  0  0  0
   -4.2202   -2.5965    0.0866 H   0  0  0  0  0  0  0  0  0  0  0  0
   -5.6621   -0.5986   -0.1877 H   0  0  0  0  0  0  0  0  0  0  0  0
   -4.6676    1.6706   -0.1018 H   0  0  0  0  0  0  0  0  0  0  0  0
   -2.2407    1.9514    0.2627 H   0  0  0  0  0  0  0  0  0  0  0  0
    2.2408   -1.9514   -0.4210 H   0  0  0  0  0  0  0  0  0  0  0  0
    4.6677   -1.6708   -0.0566 H   0  0  0  0  0  0  0  0  0  0  0  0
  1  2  2  0
  2  3  1  0
  3  4  2  0
  4  5  1  0
  5  6  1  0
  6  7  1  0
  7  8  2  0
  8  9  1  0
  9 10  2  0
 10 11  1  0
 11 12  2  0
  4 13  1  0
 13 14  2  0
 14  1  1  0
 12  7  1  0
  1 15  1  0
  2 16  1  0
  3 17  1  0
  5 18  1  0
  5 19  1  0
  6 20  1  0
  6 21  1  0
  8 22  1  0
  9 23  1  0
 10 24  1  0
 11 25  1  0
 12 26  1  0
 13 27  1  0
 14 28  1  0
M  END

     RDKit          3D

 30 31  0  0  0  0  0  0  0  0999 V2000
   -2.4470    0.8757   -1.3374 C   0  0  0  0  0  0  0  0  0  0  0  0
   -1.3806    0.1170   -0.5080 C   0  0  0  0  0  0  0  0  0  0  0  0
   -0.8723   -1.0872   -1.3521 C   0  0  0  0  0  0  0  0  0  0  0  0
   -1.8505   -0.1443    0.9505 C   0  0  1  0  0  0  0  0  0  0  0  0
   -0.9250   -1.2072    1.6357 C   0  0  0  0  0  0  0  0  0  0  0  0
    0.5581   -0.8463    1.4067 C   0  0  0  0  0  0  0  0  0  0  0  0
    0.8577    0.2476    0.6411 C   0  0  0  0  0  0  0  0  0  0  0  0
    2.2781    0.6347    0.3175 C   0  0  0  0  0  0  0  0  0  0  0  0
    2.9670   -0.4314   -0.5429 C   0  0  0  0  0  0  0  0  0  0  0  0
    4.2028    0.0495   -0.9947 O   0  0  0  0  0  0  0  0  0  0  0  0
   -0.3332    1.0716    0.1237 C   0  0  2  0  0  0  0  0  0  0  0  0
   -1.2715    1.2310    1.3375 C   0  0  0  0  0  0  0  0  0  0  0  0
   -2.9024    1.7272   -0.7926 H   0  0  0  0  0  0  0  0  0  0  0  0
   -3.2675    0.1789   -1.6196 H   0  0  0  0  0  0  0  0  0  0  0  0
   -1.9916    1.2815   -2.2668 H   0  0  0  0  0  0  0  0  0  0  0  0
   -0.4851   -0.7213   -2.3275 H   0  0  0  0  0  0  0  0  0  0  0  0
   -1.7166   -1.7801   -1.5509 H   0  0  0  0  0  0  0  0  0  0  0  0
   -0.0627   -1.6861   -0.8924 H   0  0  0  0  0  0  0  0  0  0  0  0
   -2.9425   -0.2705    1.1127 H   0  0  0  0  0  0  0  0  0  0  0  0
   -1.1383   -2.2115    1.2196 H   0  0  0  0  0  0  0  0  0  0  0  0
   -1.1309   -1.2378    2.7254 H   0  0  0  0  0  0  0  0  0  0  0  0
    1.3400   -1.4777    1.8167 H   0  0  0  0  0  0  0  0  0  0  0  0
    2.8456    0.7721    1.2627 H   0  0  0  0  0  0  0  0  0  0  0  0
    2.2818    1.5985   -0.2337 H   0  0  0  0  0  0  0  0  0  0  0  0
    2.3397   -0.6750   -1.4283 H   0  0  0  0  0  0  0  0  0  0  0  0
    3.1085   -1.3732    0.0483 H   0  0  0  0  0  0  0  0  0  0  0  0
    4.8216    0.0109   -0.2215 H   0  0  0  0  0  0  0  0  0  0  0  0
   -0.1000    2.0046   -0.4337 H   0  0  0  0  0  0  0  0  0  0  0  0
   -0.7789    1.2893    2.3379 H   0  0  0  0  0  0  0  0  0  0  0  0
   -2.0043    2.0593    1.2111 H   0  0  0  0  0  0  0  0  0  0  0  0
  1  2  1  0
  2  3  1  0
  2  4  1  0
  4  5  1  0
  5  6  1  0
  6  7  2  0
  7  8  1  0
  8  9  1  0
  9 10  1  0
  7 11  1  0
 11 12  1  0
 11  2  1  0
 12  4  1  0
  1 13  1  0
  1 14  1  0
  1 15  1  0
  3 16  1  0
  3 17  1  0
  3 18  1  0
  4 19  1  6
  5 20  1  0
  5 21  1  0
  6 22  1  0
  8 23  1  0
  8 24  1  0
  9 25  1  0
  9 26  1  0
 10 27  1  0
 11 28  1  6
 12 29  1  0
 12 30  1  0
M  END

     RDKit          3D

 38 37  0  0  0  0  0  0  0  0999 V2000
   -4.9421   -1.2536   -0.8968 C   0  0  0  0  0  0  0  0  0  0  0  0
   -4.1153    0.0162   -0.6927 C   0  0  0  0  0  0  0  0  0  0  0  0
   -2.6334   -0.1701   -1.0628 C   0  0  0  0  0  0  0  0  0  0  0  0
   -1.8730   -1.1897   -0.1876 C   0  0  0  0  0  0  0  0  0  0  0  0
   -1.8147   -0.8492    1.3143 C   0  0  0  0  0  0  0  0  0  0  0  0
   -1.1649    0.5068    1.6583 C   0  0  0  0  0  0  0  0  0  0  0  0
    0.3434    0.5808    1.3371 C   0  0  0  0  0  0  0  0  0  0  0  0
    0.6314    1.2687   -0.0114 C   0  0  0  0  0  0  0  0  0  0  0  0
    2.1240    1.5703   -0.2212 C   0  0  0  0  0  0  0  0  0  0  0  0
    2.9800    0.2980   -0.3286 C   0  0  0  0  0  0  0  0  0  0  0  0
    4.3777    0.6232   -0.8680 C   0  0  0  0  0  0  0  0  0  0  0  0
    5.2769   -0.5769   -0.8242 C   0  0  0  0  0  0  0  0  0  0  0  0
    4.9012   -1.6759   -1.3194 O   0  0  0  0  0  0  0  0  0  0  0  0
    6.5513   -0.4629   -0.2715 O   0  0  0  0  0  0  0  0  0  0  0  0
   -6.0198   -1.0166   -0.7700 H   0  0  0  0  0  0  0  0  0  0  0  0
   -4.6698   -2.0234   -0.1455 H   0  0  0  0  0  0  0  0  0  0  0  0
   -4.7897   -1.6602   -1.9174 H   0  0  0  0  0  0  0  0  0  0  0  0
   -4.5386    0.8125   -1.3454 H   0  0  0  0  0  0  0  0  0  0  0  0
   -4.2177    0.3681    0.3550 H   0  0  0  0  0  0  0  0  0  0  0  0
   -2.1305    0.8191   -1.0187 H   0  0  0  0  0  0  0  0  0  0  0  0
   -2.5692   -0.5010   -2.1228 H   0  0  0  0  0  0  0  0  0  0  0  0
   -2.3438   -2.1887   -0.3025 H   0  0  0  0  0  0  0  0  0  0  0  0
   -0.8400   -1.3016   -0.5757 H   0  0  0  0  0  0  0  0  0  0  0  0
   -1.2550   -1.6567    1.8356 H   0  0  0  0  0  0  0  0  0  0  0  0
   -2.8428   -0.8688    1.7334 H   0  0  0  0  0  0  0  0  0  0  0  0
   -1.7269    1.3443    1.1932 H   0  0  0  0  0  0  0  0  0  0  0  0
   -1.2815    0.6462    2.7559 H   0  0  0  0  0  0  0  0  0  0  0  0
    0.7918   -0.4371    1.3559 H   0  0  0  0  0  0  0  0  0  0  0  0
    0.8383    1.1720    2.1399 H   0  0  0  0  0  0  0  0  0  0  0  0
    0.0821    2.2361   -0.0544 H   0  0  0  0  0  0  0  0  0  0  0  0
    0.2724    0.6436   -0.8549 H   0  0  0  0  0  0  0  0  0  0  0  0
    2.2194    2.1564   -1.1618 H   0  0  0  0  0  0  0  0  0  0  0  0
    2.5002    2.2081    0.6091 H   0  0  0  0  0  0  0  0  0  0  0  0
    2.4892   -0.4301   -1.0115 H   0  0  0  0  0  0  0  0  0  0  0  0
    3.0734   -0.1648    0.6773 H   0  0  0  0  0  0  0  0  0  0  0  0
    4.3045    0.9782   -1.9177 H   0  0  0  0  0  0  0  0  0  0  0  0
    4.8303    1.4352   -0.2582 H   0  0  0  0  0  0  0  0  0  0  0  0
    7.1814   -1.2565   -0.2458 H   0  0  0  0  0  0  0  0  0  0  0  0
  1  2  1  0
  2  3  1  0
  3  4  1  0
  4  5  1  0
  5  6  1  0
  6  7  1  0
  7  8  1  0
  8  9  1  0
  9 10  1  0
 10 11  1  0
 11 12  1  0
 12 13  2  0
 12 14  1  0
  1 15  1  0
  1 16  1  0
  1 17  1  0
  2 18  1  0
  2 19  1  0
  3 20  1  0
  3 21  1  0
  4 22  1  0
  4 23  1  0
  5 24  1  0
  5 25  1  0
  6 26  1  0
  6 27  1  0
  7 28  1  0
  7 29  1  0
  8 30  1  0
  8 31  1  0
  9 32  1  0
  9 33  1  0
 10 34  1  0
 10 35  1  0
 11 36  1  0
 11 37  1  0
 14 38  1  0
M  END

     RDKit          3D

 26 25  0  0  0  0  0  0  0  0999 V2000
   -1.7474    1.2576    1.0907 C   0  0  0  0  0  0  0  0  0  0  0  0
   -2.0660   -0.0229    0.8982 C   0  0  0  0  0  0  0  0  0  0  0  0
   -1.9629   -0.7102   -0.4096 C   0  0  0  0  0  0  0  0  0  0  0  0
   -2.6885   -1.8168   -0.6089 C   0  0  0  0  0  0  0  0  0  0  0  0
   -0.9423   -0.3084   -1.4575 C   0  0  0  0  0  0  0  0  0  0  0  0
    0.3974   -1.0286   -1.2487 C   0  0  0  0  0  0  0  0  0  0  0  0
    1.0062   -0.7340    0.1019 C   0  0  0  0  0  0  0  0  0  0  0  0
    1.7423    0.3623    0.3957 C   0  0  0  0  0  0  0  0  0  0  0  0
    2.0911    1.3986   -0.6471 C   0  0  0  0  0  0  0  0  0  0  0  0
    2.2308    0.5375    1.8126 C   0  0  0  0  0  0  0  0  0  0  0  0
   -1.4120    1.9002    0.2915 H   0  0  0  0  0  0  0  0  0  0  0  0
   -1.8489    1.6926    2.0771 H   0  0  0  0  0  0  0  0  0  0  0  0
   -2.4550   -0.5751    1.7473 H   0  0  0  0  0  0  0  0  0  0  0  0
   -2.6020   -2.3853   -1.5286 H   0  0  0  0  0  0  0  0  0  0  0  0
   -3.3878   -2.1678    0.1391 H   0  0  0  0  0  0  0  0  0  0  0  0
   -0.7891    0.7877   -1.4768 H   0  0  0  0  0  0  0  0  0  0  0  0
   -1.3237   -0.5696   -2.4698 H   0  0  0  0  0  0  0  0  0  0  0  0
    1.1007   -0.7640   -2.0628 H   0  0  0  0  0  0  0  0  0  0  0  0
    0.2248   -2.1232   -1.3246 H   0  0  0  0  0  0  0  0  0  0  0  0
    0.8165   -1.4604    0.8904 H   0  0  0  0  0  0  0  0  0  0  0  0
    2.6398    0.9199   -1.4879 H   0  0  0  0  0  0  0  0  0  0  0  0
    1.1730    1.8899   -1.0308 H   0  0  0  0  0  0  0  0  0  0  0  0
    2.7456    2.1906   -0.2263 H   0  0  0  0  0  0  0  0  0  0  0  0
    2.8982   -0.3076    2.0853 H   0  0  0  0  0  0  0  0  0  0  0  0
    2.7956    1.4845    1.9422 H   0  0  0  0  0  0  0  0  0  0  0  0
    1.3635    0.5525    2.5076 H   0  0  0  0  0  0  0  0  0  0  0  0
  1  2  2  3
  2  3  1  0
  3  4  2  3
  3  5  1  0
  5  6  1  0
  6  7  1  0
  7  8  2  3
  8  9  1  0
  8 10  1  0
  1 11  1  0
  1 12  1  0
  2 13  1  0
  4 14  1  0
  4 15  1  0
  5 16  1  0
  5 17  1  0
  6 18  1  0
  6 19  1  0
  7 20  1  0
  9 21  1  0
  9 22  1  0
  9 23  1  0
 10 24  1  0
 10 25  1  0
 10 26  1  0
M  END

     RDKit          3D

 26 25  0  0  0  0  0  0  0  0999 V2000
   -3.3374    0.5037   -0.6439 C   0  0  0  0  0  0  0  0  0  0  0  0
   -2.9055    0.2140    0.7957 C   0  0  0  0  0  0  0  0  0  0  0  0
   -2.0969   -1.0895    0.9298 C   0  0  0  0  0  0  0  0  0  0  0  0
   -0.7640   -1.1057    0.1592 C   0  0  0  0  0  0  0  0  0  0  0  0
    0.2117   -0.0145    0.6275 C   0  0  0  0  0  0  0  0  0  0  0  0
    1.5962   -0.2057   -0.0046 C   0  0  0  0  0  0  0  0  0  0  0  0
    2.5469    0.9210    0.4104 C   0  0  0  0  0  0  0  0  0  0  0  0
    3.8945    0.7263   -0.2092 C   0  0  0  0  0  0  0  0  0  0  0  0
    4.1359    1.1946   -1.3542 O   0  0  0  0  0  0  0  0  0  0  0  0
    4.8709   -0.0027    0.4681 O   0  0  0  0  0  0  0  0  0  0  0  0
   -4.0340    1.3702   -0.6549 H   0  0  0  0  0  0  0  0  0  0  0  0
   -3.8603   -0.3778   -1.0783 H   0  0  0  0  0  0  0  0  0  0  0  0
   -2.4593    0.7624   -1.2717 H   0  0  0  0  0  0  0  0  0  0  0  0
   -3.8205    0.1166    1.4198 H   0  0  0  0  0  0  0  0  0  0  0  0
   -2.3307    1.0768    1.1972 H   0  0  0  0  0  0  0  0  0  0  0  0
   -2.7220   -1.9381    0.5733 H   0  0  0  0  0  0  0  0  0  0  0  0
   -1.8911   -1.2707    2.0078 H   0  0  0  0  0  0  0  0  0  0  0  0
   -0.2957   -2.1026    0.3194 H   0  0  0  0  0  0  0  0  0  0  0  0
   -0.9500   -1.0049   -0.9320 H   0  0  0  0  0  0  0  0  0  0  0  0
   -0.1810    0.9836    0.3322 H   0  0  0  0  0  0  0  0  0  0  0  0
    0.3061   -0.0479    1.7367 H   0  0  0  0  0  0  0  0  0  0  0  0
    1.4981   -0.2156   -1.1139 H   0  0  0  0  0  0  0  0  0  0  0  0
    2.0186   -1.1828    0.3216 H   0  0  0  0  0  0  0  0  0  0  0  0
    2.1334    1.9025    0.0890 H   0  0  0  0  0  0  0  0  0  0  0  0
    2.6547    0.9360    1.5169 H   0  0  0  0  0  0  0  0  0  0  0  0
    5.7816   -0.1491    0.0522 H   0  0  0  0  0  0  0  0  0  0  0  0
  1  2  1  0
  2  3  1  0
  3  4  1  0
  4  5  1  0
  5  6  1  0
  6  7  1  0
  7  8  1  0
  8  9  2  0
  8 10  1  0
  1 11  1  0
  1 12  1  0
  1 13  1  0
  2 14  1  0
  2 15  1  0
  3 16  1  0
  3 17  1  0
  4 18  1  0
  4 19  1  0
  5 20  1  0
  5 21  1  0
  6 22  1  0
  6 23  1  0
  7 24  1  0
  7 25  1  0
 10 26  1  0
M  END

     RDKit          3D

 44 43  0  0  0  0  0  0  0  0999 V2000
   -5.8614   -1.3884    1.0983 C   0  0  0  0  0  0  0  0  0  0  0  0
   -5.5222   -1.3609   -0.3919 C   0  0  0  0  0  0  0  0  0  0  0  0
   -4.1956   -0.6411   -0.6824 C   0  0  0  0  0  0  0  0  0  0  0  0
   -4.2977    0.8807   -0.4878 C   0  0  0  0  0  0  0  0  0  0  0  0
   -3.0558    1.6307   -0.9987 C   0  0  0  0  0  0  0  0  0  0  0  0
   -1.7871    1.3714   -0.1576 C   0  0  0  0  0  0  0  0  0  0  0  0
   -0.8120    0.4065   -0.8565 C   0  0  0  0  0  0  0  0  0  0  0  0
    0.4122    0.0712    0.0124 C   0  0  0  0  0  0  0  0  0  0  0  0
    1.4313    1.2235    0.0590 C   0  0  0  0  0  0  0  0  0  0  0  0
    2.6323    0.9186    0.9682 C   0  0  0  0  0  0  0  0  0  0  0  0
    3.5660   -0.1543    0.3860 C   0  0  0  0  0  0  0  0  0  0  0  0
    4.8542   -0.2657    1.2164 C   0  0  0  0  0  0  0  0  0  0  0  0
    5.7894   -1.3664    0.6965 C   0  0  0  0  0  0  0  0  0  0  0  0
    6.3191   -1.0601   -0.6734 C   0  0  0  0  0  0  0  0  0  0  0  0
    6.1907   -1.9037   -1.6025 O   0  0  0  0  0  0  0  0  0  0  0  0
    6.9695    0.1482   -0.9166 O   0  0  0  0  0  0  0  0  0  0  0  0
   -5.0314   -1.8455    1.6765 H   0  0  0  0  0  0  0  0  0  0  0  0
   -6.0518   -0.3633    1.4752 H   0  0  0  0  0  0  0  0  0  0  0  0
   -6.7789   -1.9935    1.2584 H   0  0  0  0  0  0  0  0  0  0  0  0
   -6.3527   -0.8824   -0.9550 H   0  0  0  0  0  0  0  0  0  0  0  0
   -5.4392   -2.4096   -0.7485 H   0  0  0  0  0  0  0  0  0  0  0  0
   -3.9122   -0.8533   -1.7368 H   0  0  0  0  0  0  0  0  0  0  0  0
   -3.4012   -1.0562   -0.0261 H   0  0  0  0  0  0  0  0  0  0  0  0
   -4.4558    1.1222    0.5854 H   0  0  0  0  0  0  0  0  0  0  0  0
   -5.1790    1.2593   -1.0509 H   0  0  0  0  0  0  0  0  0  0  0  0
   -3.2855    2.7181   -0.9522 H   0  0  0  0  0  0  0  0  0  0  0  0
   -2.8855    1.3953   -2.0727 H   0  0  0  0  0  0  0  0  0  0  0  0
   -2.0544    0.9772    0.8477 H   0  0  0  0  0  0  0  0  0  0  0  0
   -1.2772    2.3449    0.0001 H   0  0  0  0  0  0  0  0  0  0  0  0
   -1.3404   -0.5425   -1.0861 H   0  0  0  0  0  0  0  0  0  0  0  0
   -0.4772    0.8402   -1.8242 H   0  0  0  0  0  0  0  0  0  0  0  0
    0.9000   -0.8249   -0.4274 H   0  0  0  0  0  0  0  0  0  0  0  0
    0.0839   -0.1926    1.0419 H   0  0  0  0  0  0  0  0  0  0  0  0
    0.9385    2.1365    0.4552 H   0  0  0  0  0  0  0  0  0  0  0  0
    1.7899    1.4537   -0.9680 H   0  0  0  0  0  0  0  0  0  0  0  0
    2.2738    0.6021    1.9725 H   0  0  0  0  0  0  0  0  0  0  0  0
    3.2069    1.8629    1.0975 H   0  0  0  0  0  0  0  0  0  0  0  0
    3.0509   -1.1393    0.3871 H   0  0  0  0  0  0  0  0  0  0  0  0
    3.8240    0.1131   -0.6625 H   0  0  0  0  0  0  0  0  0  0  0  0
    4.5878   -0.5027    2.2705 H   0  0  0  0  0  0  0  0  0  0  0  0
    5.3913    0.7084    1.2151 H   0  0  0  0  0  0  0  0  0  0  0  0
    5.2518   -2.3401    0.6898 H   0  0  0  0  0  0  0  0  0  0  0  0
    6.6527   -1.4615    1.3897 H   0  0  0  0  0  0  0  0  0  0  0  0
    7.3379    0.3633   -1.8356 H   0  0  0  0  0  0  0  0  0  0  0  0
  1  2  1  0
  2  3  1  0
  3  4  1  0
  4  5  1  0
  5  6  1  0
  6  7  1  0
  7  8  1  0
  8  9  1  0
  9 10  1  0
 10 11  1  0
 11 12  1  0
 12 13  1  0
 13 14  1  0
 14 15  2  0
 14 16  1  0
  1 17  1  0
  1 18  1  0
  1 19  1  0
  2 20  1  0
  2 21  1  0
  3 22  1  0
  3 23  1  0
  4 24  1  0
  4 25  1  0
  5 26  1  0
  5 27  1  0
  6 28  1  0
  6 29  1  0
  7 30  1  0
  7 31  1  0
  8 32  1  0
  8 33  1  0
  9 34  1  0
  9 35  1  0
 10 36  1  0
 10 37  1  0
 11 38  1  0
 11 39  1  0
 12 40  1  0
 12 41  1  0
 13 42  1  0
 13 43  1  0
 16 44  1  0
M  END

     RDKit          3D

 49 51  0  0  0  0  0  0  0  0999 V2000
    3.1055    3.6719   -0.6633 C   0  0  0  0  0  0  0  0  0  0  0  0
    3.9937    2.5759   -0.4668 O   0  0  0  0  0  0  0  0  0  0  0  0
    3.5918    1.2782   -0.1107 C   0  0  0  0  0  0  0  0  0  0  0  0
    2.2151    0.9469    0.0151 C   0  0  0  0  0  0  0  0  0  0  0  0
    1.7999   -0.3407    0.4048 C   0  0  0  0  0  0  0  0  0  0  0  0
    0.3312   -0.6750    0.4849 C   0  0  0  0  0  0  0  0  0  0  0  0
   -0.1653   -1.2707   -0.8408 C   0  0  0  0  0  0  0  0  0  0  0  0
   -1.5891   -1.8413   -0.7365 C   0  0  0  0  0  0  0  0  0  0  0  0
   -2.6457   -0.7407   -0.5418 C   0  0  0  0  0  0  0  0  0  0  0  0
   -4.0585   -1.3260   -0.6173 C   0  0  0  0  0  0  0  0  0  0  0  0
   -5.0923   -0.2572   -0.3841 C   0  0  0  0  0  0  0  0  0  0  0  0
   -5.5309    0.0332    0.9197 C   0  0  0  0  0  0  0  0  0  0  0  0
   -6.4874    1.0310    1.1309 C   0  0  0  0  0  0  0  0  0  0  0  0
   -6.9975    1.7538    0.0496 C   0  0  0  0  0  0  0  0  0  0  0  0
   -6.5555    1.4800   -1.2469 C   0  0  0  0  0  0  0  0  0  0  0  0
   -5.5971    0.4861   -1.4654 C   0  0  0  0  0  0  0  0  0  0  0  0
    2.7956   -1.2891    0.6714 C   0  0  0  0  0  0  0  0  0  0  0  0
    4.1439   -0.9779    0.5576 C   0  0  0  0  0  0  0  0  0  0  0  0
    4.5778    0.2882    0.1463 C   0  0  0  0  0  0  0  0  0  0  0  0
    5.9596    0.5146    0.0127 O   0  0  0  0  0  0  0  0  0  0  0  0
    6.5522    1.3815   -0.9551 C   0  0  0  0  0  0  0  0  0  0  0  0
    4.9815   -2.1054    0.8268 N   0  0  0  0  0  0  0  0  0  0  0  0
    4.0815   -3.1705    1.1260 C   0  0  0  0  0  0  0  0  0  0  0  0
    4.4453   -4.3415    1.4155 O   0  0  0  0  0  0  0  0  0  0  0  0
    2.7074   -2.7024    1.0405 C   0  0  0  0  0  0  0  0  0  0  0  0
    1.6667   -3.3909    1.2137 O   0  0  0  0  0  0  0  0  0  0  0  0
    2.5226    3.8609    0.2635 H   0  0  0  0  0  0  0  0  0  0  0  0
    3.6868    4.5855   -0.8976 H   0  0  0  0  0  0  0  0  0  0  0  0
    2.4293    3.4652   -1.5185 H   0  0  0  0  0  0  0  0  0  0  0  0
    1.4595    1.6902   -0.1943 H   0  0  0  0  0  0  0  0  0  0  0  0
   -0.2432    0.2489    0.7126 H   0  0  0  0  0  0  0  0  0  0  0  0
    0.1441   -1.3808    1.3231 H   0  0  0  0  0  0  0  0  0  0  0  0
    0.5108   -2.0979   -1.1462 H   0  0  0  0  0  0  0  0  0  0  0  0
   -0.1281   -0.5009   -1.6446 H   0  0  0  0  0  0  0  0  0  0  0  0
   -1.8142   -2.3828   -1.6826 H   0  0  0  0  0  0  0  0  0  0  0  0
   -1.6438   -2.5812    0.0968 H   0  0  0  0  0  0  0  0  0  0  0  0
   -2.5301    0.0368   -1.3296 H   0  0  0  0  0  0  0  0  0  0  0  0
   -2.5102   -0.2585    0.4496 H   0  0  0  0  0  0  0  0  0  0  0  0
   -4.2124   -1.7870   -1.6155 H   0  0  0  0  0  0  0  0  0  0  0  0
   -4.1721   -2.1295    0.1416 H   0  0  0  0  0  0  0  0  0  0  0  0
   -5.1369   -0.5139    1.7677 H   0  0  0  0  0  0  0  0  0  0  0  0
   -6.8446    1.2396    2.1337 H   0  0  0  0  0  0  0  0  0  0  0  0
   -7.7380    2.5246    0.2180 H   0  0  0  0  0  0  0  0  0  0  0  0
   -6.9608    2.0348   -2.0838 H   0  0  0  0  0  0  0  0  0  0  0  0
   -5.2573    0.2854   -2.4747 H   0  0  0  0  0  0  0  0  0  0  0  0
    7.6498    1.2050   -0.9609 H   0  0  0  0  0  0  0  0  0  0  0  0
    6.3847    2.4533   -0.7031 H   0  0  0  0  0  0  0  0  0  0  0  0
    6.1516    1.1404   -1.9691 H   0  0  0  0  0  0  0  0  0  0  0  0
    6.0234   -2.1503    0.7940 H   0  0  0  0  0  0  0  0  0  0  0  0
  1  2  1  0
  2  3  1  0
  3  4  2  0
  4  5  1  0
  5  6  1  0
  6  7  1  0
  7  8  1  0
  8  9  1  0
  9 10  1  0
 10 11  1  0
 11 12  2  0
 12 13  1  0
 13 14  2  0
 14 15  1  0
 15 16  2  0
  5 17  2  0
 17 18  1  0
 18 19  2  0
 19 20  1  0
 20 21  1  0
 18 22  1  0
 22 23  1  0
 23 24  2  0
 23 25  1  0
 25 26  2  0
 19  3  1  0
 16 11  1  0
 25 17  1  0
  1 27  1  0
  1 28  1  0
  1 29  1  0
  4 30  1  0
  6 31  1  0
  6 32  1  0
  7 33  1  0
  7 34  1  0
  8 35  1  0
  8 36  1  0
  9 37  1  0
  9 38  1  0
 10 39  1  0
 10 40  1  0
 12 41  1  0
 13 42  1  0
 14 43  1  0
 15 44  1  0
 16 45  1  0
 21 46  1  0
 21 47  1  0
 21 48  1  0
 22 49  1  0
M  END

     RDKit          3D

 41 43  0  0  0  0  0  0  0  0999 V2000
   -6.1367    0.9766    2.8099 O   0  0  0  0  0  0  0  0  0  0  0  0
   -5.3713    0.5462    1.9063 C   0  0  0  0  0  0  0  0  0  0  0  0
   -5.4893   -0.7376    1.2999 N   0  0  0  0  0  0  0  0  0  0  0  0
   -4.4736   -0.7612    0.2884 C   0  0  0  0  0  0  0  0  0  0  0  0
   -4.2469   -1.7982   -0.6179 C   0  0  0  0  0  0  0  0  0  0  0  0
   -3.2509   -1.6318   -1.5936 C   0  0  0  0  0  0  0  0  0  0  0  0
   -2.4919   -0.4453   -1.6504 C   0  0  0  0  0  0  0  0  0  0  0  0
   -2.6997    0.5937   -0.7085 C   0  0  0  0  0  0  0  0  0  0  0  0
   -1.8445    1.8437   -0.7667 C   0  0  0  0  0  0  0  0  0  0  0  0
   -0.3361    1.5502   -0.6793 C   0  0  0  0  0  0  0  0  0  0  0  0
    0.0518    0.7908    0.6033 C   0  0  0  0  0  0  0  0  0  0  0  0
    1.5744    0.6305    0.7466 C   0  0  0  0  0  0  0  0  0  0  0  0
    2.1604   -0.3799   -0.2612 C   0  0  0  0  0  0  0  0  0  0  0  0
    3.6345   -0.5783   -0.0315 C   0  0  0  0  0  0  0  0  0  0  0  0
    4.5663    0.2686   -0.6586 C   0  0  0  0  0  0  0  0  0  0  0  0
    5.9357    0.0957   -0.4368 C   0  0  0  0  0  0  0  0  0  0  0  0
    6.3837   -0.9159    0.4174 C   0  0  0  0  0  0  0  0  0  0  0  0
    5.4621   -1.7553    1.0509 C   0  0  0  0  0  0  0  0  0  0  0  0
    4.0898   -1.5852    0.8336 C   0  0  0  0  0  0  0  0  0  0  0  0
   -3.7287    0.4121    0.2460 C   0  0  0  0  0  0  0  0  0  0  0  0
   -4.2836    1.2909    1.2879 C   0  0  0  0  0  0  0  0  0  0  0  0
   -3.9475    2.4724    1.5584 O   0  0  0  0  0  0  0  0  0  0  0  0
   -6.1879   -1.4872    1.5209 H   0  0  0  0  0  0  0  0  0  0  0  0
   -4.8401   -2.7035   -0.5965 H   0  0  0  0  0  0  0  0  0  0  0  0
   -3.0764   -2.4185   -2.3233 H   0  0  0  0  0  0  0  0  0  0  0  0
   -1.7433   -0.3386   -2.4313 H   0  0  0  0  0  0  0  0  0  0  0  0
   -2.0948    2.5572    0.0425 H   0  0  0  0  0  0  0  0  0  0  0  0
   -2.0495    2.3611   -1.7316 H   0  0  0  0  0  0  0  0  0  0  0  0
   -0.0249    0.9695   -1.5710 H   0  0  0  0  0  0  0  0  0  0  0  0
    0.2084    2.5219   -0.7106 H   0  0  0  0  0  0  0  0  0  0  0  0
   -0.3246    1.3599    1.4827 H   0  0  0  0  0  0  0  0  0  0  0  0
   -0.4372   -0.2118    0.6322 H   0  0  0  0  0  0  0  0  0  0  0  0
    1.7888    0.2594    1.7718 H   0  0  0  0  0  0  0  0  0  0  0  0
    2.0736    1.6218    0.6365 H   0  0  0  0  0  0  0  0  0  0  0  0
    1.6314   -1.3562   -0.1767 H   0  0  0  0  0  0  0  0  0  0  0  0
    2.0076   -0.0151   -1.2983 H   0  0  0  0  0  0  0  0  0  0  0  0
    4.2290    1.0601   -1.3181 H   0  0  0  0  0  0  0  0  0  0  0  0
    6.6473    0.7513   -0.9227 H   0  0  0  0  0  0  0  0  0  0  0  0
    7.4444   -1.0439    0.5915 H   0  0  0  0  0  0  0  0  0  0  0  0
    5.8060   -2.5327    1.7191 H   0  0  0  0  0  0  0  0  0  0  0  0
    3.3842   -2.2378    1.3351 H   0  0  0  0  0  0  0  0  0  0  0  0
  1  2  2  0
  2  3  1  0
  3  4  1  0
  4  5  2  0
  5  6  1  0
  6  7  2  0
  7  8  1  0
  8  9  1  0
  9 10  1  0
 10 11  1  0
 11 12  1  0
 12 13  1  0
 13 14  1  0
 14 15  2  0
 15 16  1  0
 16 17  2  0
 17 18  1  0
 18 19  2  0
  8 20  2  0
 20 21  1  0
 21 22  2  0
 21  2  1  0
 20  4  1  0
 19 14  1  0
  3 23  1  0
  5 24  1  0
  6 25  1  0
  7 26  1  0
  9 27  1  0
  9 28  1  0
 10 29  1  0
 10 30  1  0
 11 31  1  0
 11 32  1  0
 12 33  1  0
 12 34  1  0
 13 35  1  0
 13 36  1  0
 15 37  1  0
 16 38  1  0
 17 39  1  0
 18 40  1  0
 19 41  1  0
M  END

     RDKit          3D

 45 49  0  0  0  0  0  0  0  0999 V2000
    5.8345   -2.1572   -0.5924 C   0  0  0  0  0  0  0  0  0  0  0  0
    5.3687   -0.9743    0.0496 O   0  0  0  0  0  0  0  0  0  0  0  0
    4.0247   -0.5701    0.1009 C   0  0  0  0  0  0  0  0  0  0  0  0
    2.9953   -1.3262   -0.4850 C   0  0  0  0  0  0  0  0  0  0  0  0
    1.6644   -0.8957   -0.4136 C   0  0  0  0  0  0  0  0  0  0  0  0
    1.3458    0.3312    0.2107 C   0  0  0  0  0  0  0  0  0  0  0  0
    2.3793    1.0695    0.8190 C   0  0  0  0  0  0  0  0  0  0  0  0
    3.7150    0.6253    0.7633 C   0  0  0  0  0  0  0  0  0  0  0  0
    4.7656    1.3467    1.3533 O   0  0  0  0  0  0  0  0  0  0  0  0
    4.6129    2.5842    2.0419 C   0  0  0  0  0  0  0  0  0  0  0  0
   -0.0821    0.7853    0.2267 C   0  0  0  0  0  0  0  0  0  0  0  0
   -0.4475    2.1186    0.4933 C   0  0  0  0  0  0  0  0  0  0  0  0
   -1.7845    2.5130    0.4603 C   0  0  0  0  0  0  0  0  0  0  0  0
   -2.7859    1.6007    0.1118 C   0  0  0  0  0  0  0  0  0  0  0  0
   -4.1298    2.0260    0.0306 C   0  0  0  0  0  0  0  0  0  0  0  0
   -5.0829    1.1009   -0.3783 C   0  0  0  0  0  0  0  0  0  0  0  0
   -4.7569   -0.1744   -0.7003 C   0  0  0  0  0  0  0  0  0  0  0  0
   -3.4501   -0.6449   -0.6303 C   0  0  0  0  0  0  0  0  0  0  0  0
   -2.4382    0.2459   -0.1911 C   0  0  0  0  0  0  0  0  0  0  0  0
   -1.0859   -0.1588   -0.0844 C   0  0  0  0  0  0  0  0  0  0  0  0
   -0.6800   -1.5212   -0.3162 N   0  0  0  0  0  0  0  0  0  0  0  0
   -1.1418   -2.5855    0.5789 C   0  0  0  0  0  0  0  0  0  0  0  0
    0.5734   -1.7215   -1.0471 C   0  0  0  0  0  0  0  0  0  0  0  0
   -5.8948   -0.8571   -1.0865 O   0  0  0  0  0  0  0  0  0  0  0  0
   -7.0057    0.0455   -0.9956 C   0  0  0  0  0  0  0  0  0  0  0  0
   -6.4429    1.2836   -0.5408 O   0  0  0  0  0  0  0  0  0  0  0  0
    6.9360   -2.2224   -0.4750 H   0  0  0  0  0  0  0  0  0  0  0  0
    5.3741   -3.0535   -0.1247 H   0  0  0  0  0  0  0  0  0  0  0  0
    5.5940   -2.1240   -1.6763 H   0  0  0  0  0  0  0  0  0  0  0  0
    3.2193   -2.2540   -0.9936 H   0  0  0  0  0  0  0  0  0  0  0  0
    2.1517    1.9757    1.3556 H   0  0  0  0  0  0  0  0  0  0  0  0
    5.6076    2.9296    2.3901 H   0  0  0  0  0  0  0  0  0  0  0  0
    3.9543    2.4519    2.9261 H   0  0  0  0  0  0  0  0  0  0  0  0
    4.1890    3.3522    1.3604 H   0  0  0  0  0  0  0  0  0  0  0  0
    0.2922    2.8777    0.7016 H   0  0  0  0  0  0  0  0  0  0  0  0
   -2.0322    3.5464    0.6748 H   0  0  0  0  0  0  0  0  0  0  0  0
   -4.4206    3.0434    0.2626 H   0  0  0  0  0  0  0  0  0  0  0  0
   -3.2372   -1.6627   -0.9271 H   0  0  0  0  0  0  0  0  0  0  0  0
   -1.3034   -3.5188   -0.0001 H   0  0  0  0  0  0  0  0  0  0  0  0
   -2.0907   -2.3095    1.0837 H   0  0  0  0  0  0  0  0  0  0  0  0
   -0.3769   -2.7705    1.3629 H   0  0  0  0  0  0  0  0  0  0  0  0
    0.4377   -1.4007   -2.1015 H   0  0  0  0  0  0  0  0  0  0  0  0
    0.8535   -2.7987   -1.0510 H   0  0  0  0  0  0  0  0  0  0  0  0
   -7.4723    0.1813   -1.9932 H   0  0  0  0  0  0  0  0  0  0  0  0
   -7.7466   -0.3324   -0.2608 H   0  0  0  0  0  0  0  0  0  0  0  0
  1  2  1  0
  2  3  1  0
  3  4  2  0
  4  5  1  0
  5  6  2  0
  6  7  1  0
  7  8  2  0
  8  9  1  0
  9 10  1  0
  6 11  1  0
 11 12  2  0
 12 13  1  0
 13 14  2  0
 14 15  1  0
 15 16  2  0
 16 17  1  0
 17 18  2  0
 18 19  1  0
 19 20  2  0
 20 21  1  0
 21 22  1  0
 21 23  1  0
 17 24  1  0
 24 25  1  0
 25 26  1  0
  8  3  1  0
 20 11  1  0
 23  5  1  0
 19 14  1  0
 26 16  1  0
  1 27  1  0
  1 28  1  0
  1 29  1  0
  4 30  1  0
  7 31  1  0
 10 32  1  0
 10 33  1  0
 10 34  1  0
 12 35  1  0
 13 36  1  0
 15 37  1  0
 18 38  1  0
 22 39  1  0
 22 40  1  0
 22 41  1  0
 23 42  1  0
 23 43  1  0
 25 44  1  0
 25 45  1  0
M  END

     RDKit          3D

 46 49  0  0  0  0  0  0  0  0999 V2000
    3.8488    1.9035    1.7545 C   0  0  0  0  0  0  0  0  0  0  0  0
    4.0381    0.4902    1.8014 O   0  0  0  0  0  0  0  0  0  0  0  0
    3.4175   -0.4298    0.9401 C   0  0  0  0  0  0  0  0  0  0  0  0
    2.4883   -0.0282   -0.0403 C   0  0  0  0  0  0  0  0  0  0  0  0
    1.8945   -0.9719   -0.9079 C   0  0  0  0  0  0  0  0  0  0  0  0
    0.8273   -0.6182   -1.9369 C   0  0  1  0  0  0  0  0  0  0  0  0
   -0.4058   -1.2223   -1.5332 O   0  0  0  0  0  0  0  0  0  0  0  0
   -1.2495   -0.5971   -0.6102 C   0  0  0  0  0  0  0  0  0  0  0  0
   -2.2505   -1.3300    0.0416 C   0  0  0  0  0  0  0  0  0  0  0  0
   -2.3904   -2.6947   -0.2643 O   0  0  0  0  0  0  0  0  0  0  0  0
   -3.3285   -3.5699    0.3527 C   0  0  0  0  0  0  0  0  0  0  0  0
   -3.0686   -0.6829    0.9874 C   0  0  0  0  0  0  0  0  0  0  0  0
   -2.8707    0.6754    1.2784 C   0  0  0  0  0  0  0  0  0  0  0  0
   -3.6572    1.3395    2.2233 C   0  0  0  0  0  0  0  0  0  0  0  0
   -3.4216    2.6879    2.4842 C   0  0  0  0  0  0  0  0  0  0  0  0
   -2.4071    3.3479    1.7821 C   0  0  0  0  0  0  0  0  0  0  0  0
   -2.1810    4.5656    2.0040 O   0  0  0  0  0  0  0  0  0  0  0  0
   -1.6780    2.6966    0.8794 O   0  0  0  0  0  0  0  0  0  0  0  0
   -1.8642    1.4067    0.6079 C   0  0  0  0  0  0  0  0  0  0  0  0
   -1.0683    0.7680   -0.3447 C   0  0  0  0  0  0  0  0  0  0  0  0
   -0.0810    1.4747   -1.0426 O   0  0  0  0  0  0  0  0  0  0  0  0
    0.6052    0.9039   -2.1658 C   0  0  2  0  0  0  0  0  0  0  0  0
   -0.2113    1.1515   -3.4448 C   0  0  0  0  0  0  0  0  0  0  0  0
   -0.3792    2.5282   -3.6580 O   0  0  0  0  0  0  0  0  0  0  0  0
    2.2433   -2.3248   -0.7679 C   0  0  0  0  0  0  0  0  0  0  0  0
    3.1547   -2.7279    0.2069 C   0  0  0  0  0  0  0  0  0  0  0  0
    3.7395   -1.7911    1.0628 C   0  0  0  0  0  0  0  0  0  0  0  0
    4.6432   -2.2321    2.0286 O   0  0  0  0  0  0  0  0  0  0  0  0
    4.1549    2.2942    0.7605 H   0  0  0  0  0  0  0  0  0  0  0  0
    4.4820    2.3823    2.5289 H   0  0  0  0  0  0  0  0  0  0  0  0
    2.7869    2.1566    1.9565 H   0  0  0  0  0  0  0  0  0  0  0  0
    2.2276    1.0150   -0.1068 H   0  0  0  0  0  0  0  0  0  0  0  0
    1.1427   -1.0783   -2.8996 H   0  0  0  0  0  0  0  0  0  0  0  0
   -3.1413   -3.6239    1.4479 H   0  0  0  0  0  0  0  0  0  0  0  0
   -4.3635   -3.2164    0.1594 H   0  0  0  0  0  0  0  0  0  0  0  0
   -3.2170   -4.5882   -0.0791 H   0  0  0  0  0  0  0  0  0  0  0  0
   -3.8417   -1.2331    1.5082 H   0  0  0  0  0  0  0  0  0  0  0  0
   -4.4399    0.8171    2.7621 H   0  0  0  0  0  0  0  0  0  0  0  0
   -4.0205    3.2110    3.2183 H   0  0  0  0  0  0  0  0  0  0  0  0
    1.5839    1.4141   -2.2995 H   0  0  0  0  0  0  0  0  0  0  0  0
   -1.2002    0.6435   -3.3828 H   0  0  0  0  0  0  0  0  0  0  0  0
    0.3300    0.7250   -4.3177 H   0  0  0  0  0  0  0  0  0  0  0  0
   -1.1549    2.8107   -3.1122 H   0  0  0  0  0  0  0  0  0  0  0  0
    1.7906   -3.0751   -1.4050 H   0  0  0  0  0  0  0  0  0  0  0  0
    3.4005   -3.7772    0.3024 H   0  0  0  0  0  0  0  0  0  0  0  0
    5.0924   -1.5958    2.6766 H   0  0  0  0  0  0  0  0  0  0  0  0
  1  2  1  0
  2  3  1  0
  3  4  2  0
  4  5  1  0
  5  6  1  0
  6  7  1  0
  7  8  1  0
  8  9  2  0
  9 10  1  0
 10 11  1  0
  9 12  1  0
 12 13  2  0
 13 14  1  0
 14 15  2  0
 15 16  1  0
 16 17  2  0
 16 18  1  0
 18 19  1  0
 19 20  2  0
 20 21  1  0
 21 22  1  0
 22 23  1  0
 23 24  1  0
  5 25  2  0
 25 26  1  0
 26 27  2  0
 27 28  1  0
 27  3  1  0
 22  6  1  0
 20  8  1  0
 19 13  1  0
  1 29  1  0
  1 30  1  0
  1 31  1  0
  4 32  1  0
  6 33  1  6
 11 34  1  0
 11 35  1  0
 11 36  1  0
 12 37  1  0
 14 38  1  0
 15 39  1  0
 22 40  1  6
 23 41  1  0
 23 42  1  0
 24 43  1  0
 25 44  1  0
 26 45  1  0
 28 46  1  0
M  END

     RDKit          3D

 20 20  0  0  0  0  0  0  0  0999 V2000
    3.8250   -0.0355    0.5700 C   0  0  0  0  0  0  0  0  0  0  0  0
    2.6690   -0.8643    0.5370 O   0  0  0  0  0  0  0  0  0  0  0  0
    1.3627   -0.4301    0.2551 C   0  0  0  0  0  0  0  0  0  0  0  0
    0.3894   -1.3480    0.2666 C   0  0  0  0  0  0  0  0  0  0  0  0
   -1.0120   -0.9856   -0.0173 C   0  0  0  0  0  0  0  0  0  0  0  0
   -1.8883   -1.8888    0.0067 O   0  0  0  0  0  0  0  0  0  0  0  0
   -1.3627    0.4301   -0.3247 C   0  0  0  0  0  0  0  0  0  0  0  0
   -2.6690    0.8643   -0.6066 O   0  0  0  0  0  0  0  0  0  0  0  0
   -3.8250    0.0355   -0.6395 C   0  0  0  0  0  0  0  0  0  0  0  0
   -0.3894    1.3480   -0.3362 C   0  0  0  0  0  0  0  0  0  0  0  0
    1.0120    0.9856   -0.0523 C   0  0  0  0  0  0  0  0  0  0  0  0
    1.8883    1.8888   -0.0763 O   0  0  0  0  0  0  0  0  0  0  0  0
    4.7078   -0.6591    0.8193 H   0  0  0  0  0  0  0  0  0  0  0  0
    3.9937    0.4274   -0.4250 H   0  0  0  0  0  0  0  0  0  0  0  0
    3.7156    0.7445    1.3525 H   0  0  0  0  0  0  0  0  0  0  0  0
    0.6306   -2.3809    0.4886 H   0  0  0  0  0  0  0  0  0  0  0  0
   -3.9937   -0.4274    0.3555 H   0  0  0  0  0  0  0  0  0  0  0  0
   -4.7078    0.6591   -0.8889 H   0  0  0  0  0  0  0  0  0  0  0  0
   -3.7156   -0.7445   -1.4221 H   0  0  0  0  0  0  0  0  0  0  0  0
   -0.6306    2.3809   -0.5582 H   0  0  0  0  0  0  0  0  0  0  0  0
  1  2  1  0
  2  3  1  0
  3  4  2  0
  4  5  1  0
  5  6  2  0
  5  7  1  0
  7  8  1  0
  8  9  1  0
  7 10  2  0
 10 11  1  0
 11 12  2  0
 11  3  1  0
  1 13  1  0
  1 14  1  0
  1 15  1  0
  4 16  1  0
  9 17  1  0
  9 18  1  0
  9 19  1  0
 10 20  1  0
M  END

     RDKit          3D

 28 30  0  0  0  0  0  0  0  0999 V2000
   -4.8911    0.8555    0.1200 C   0  0  0  0  0  0  0  0  0  0  0  0
   -3.5163    1.2164    0.0204 O   0  0  0  0  0  0  0  0  0  0  0  0
   -2.4483    0.3060   -0.0620 C   0  0  0  0  0  0  0  0  0  0  0  0
   -2.6404   -1.0229   -0.0714 C   0  0  0  0  0  0  0  0  0  0  0  0
   -1.5077   -1.9516   -0.1845 C   0  0  0  0  0  0  0  0  0  0  0  0
   -1.7356   -3.1876   -0.2838 O   0  0  0  0  0  0  0  0  0  0  0  0
   -0.1185   -1.4365   -0.1591 C   0  0  0  0  0  0  0  0  0  0  0  0
    0.9588   -2.3297   -0.2309 C   0  0  0  0  0  0  0  0  0  0  0  0
    2.2672   -1.8667   -0.1788 C   0  0  0  0  0  0  0  0  0  0  0  0
    2.5298   -0.5061    0.0037 C   0  0  0  0  0  0  0  0  0  0  0  0
    3.8607   -0.0704    0.1098 C   0  0  0  0  0  0  0  0  0  0  0  0
    4.1451    1.2711    0.3531 C   0  0  0  0  0  0  0  0  0  0  0  0
    3.1070    2.1844    0.5144 C   0  0  0  0  0  0  0  0  0  0  0  0
    1.7773    1.7702    0.4047 C   0  0  0  0  0  0  0  0  0  0  0  0
    1.4567    0.4243    0.1047 C   0  0  0  0  0  0  0  0  0  0  0  0
    0.1139   -0.0434   -0.0531 C   0  0  0  0  0  0  0  0  0  0  0  0
   -1.0800    0.8550   -0.1663 C   0  0  0  0  0  0  0  0  0  0  0  0
   -0.9561    2.0764   -0.4447 O   0  0  0  0  0  0  0  0  0  0  0  0
   -5.2006    0.2780   -0.7766 H   0  0  0  0  0  0  0  0  0  0  0  0
   -5.5045    1.7780    0.1763 H   0  0  0  0  0  0  0  0  0  0  0  0
   -5.0637    0.2578    1.0399 H   0  0  0  0  0  0  0  0  0  0  0  0
   -3.6362   -1.4417   -0.0169 H   0  0  0  0  0  0  0  0  0  0  0  0
    0.7895   -3.3945   -0.3328 H   0  0  0  0  0  0  0  0  0  0  0  0
    3.0788   -2.5819   -0.2481 H   0  0  0  0  0  0  0  0  0  0  0  0
    4.6819   -0.7718    0.0182 H   0  0  0  0  0  0  0  0  0  0  0  0
    5.1728    1.5992    0.4412 H   0  0  0  0  0  0  0  0  0  0  0  0
    3.3328    3.2188    0.7405 H   0  0  0  0  0  0  0  0  0  0  0  0
    1.0266    2.5138    0.6103 H   0  0  0  0  0  0  0  0  0  0  0  0
  1  2  1  0
  2  3  1  0
  3  4  2  0
  4  5  1  0
  5  6  2  0
  5  7  1  0
  7  8  2  0
  8  9  1  0
  9 10  2  0
 10 11  1  0
 11 12  2  0
 12 13  1  0
 13 14  2  0
 14 15  1  0
 15 16  2  0
 16 17  1  0
 17 18  2  0
 17  3  1  0
 16  7  1  0
 15 10  1  0
  1 19  1  0
  1 20  1  0
  1 21  1  0
  4 22  1  0
  8 23  1  0
  9 24  1  0
 11 25  1  0
 12 26  1  0
 13 27  1  0
 14 28  1  0
M  END

     RDKit          3D

 55 58  0  0  0  0  0  0  0  0999 V2000
    4.6557    0.3224   -2.3719 C   0  0  0  0  0  0  0  0  0  0  0  0
    4.0931    0.3926   -0.9931 C   0  0  0  0  0  0  0  0  0  0  0  0
    4.7418    0.9750   -0.0810 O   0  0  0  0  0  0  0  0  0  0  0  0
    2.8699   -0.2280   -0.7175 O   0  0  0  0  0  0  0  0  0  0  0  0
    2.3094   -0.3274    0.5892 C   0  0  1  0  0  0  0  0  0  0  0  0
    0.8372   -0.8136    0.5222 C   0  0  0  0  0  0  0  0  0  0  0  0
   -0.2548    0.1261   -0.1532 C   0  0  1  0  0  0  0  0  0  0  0  0
    0.2330    1.6153   -0.1668 C   0  0  0  0  0  0  0  0  0  0  0  0
   -0.5758   -0.3553   -1.6214 C   0  0  2  0  0  0  0  0  0  0  0  0
    0.6339   -0.5074   -2.5604 C   0  0  0  0  0  0  0  0  0  0  0  0
   -1.6376    0.5327   -2.3165 C   0  0  0  0  0  0  0  0  0  0  0  0
   -2.7684    1.0189   -1.3917 C   0  0  0  0  0  0  0  0  0  0  0  0
   -2.9586    0.1374   -0.1373 C   0  0  2  0  0  0  0  0  0  0  0  0
   -3.6476   -1.2166   -0.5588 C   0  0  0  0  0  0  0  0  0  0  0  0
   -5.0438   -1.0442   -0.3242 O   0  0  0  0  0  0  0  0  0  0  0  0
   -5.2769    0.0707    0.4484 C   0  0  0  0  0  0  0  0  0  0  0  0
   -6.4124    0.3894    0.8946 O   0  0  0  0  0  0  0  0  0  0  0  0
   -4.0431    0.7710    0.6990 C   0  0  0  0  0  0  0  0  0  0  0  0
   -3.8315    1.6732    1.6572 C   0  0  0  0  0  0  0  0  0  0  0  0
   -2.4188    2.0112    2.0103 C   0  0  0  0  0  0  0  0  0  0  0  0
   -1.6012    0.7113    2.0554 C   0  0  0  0  0  0  0  0  0  0  0  0
   -1.6050   -0.0465    0.6847 C   0  0  2  0  0  0  0  0  0  0  0  0
    3.1293   -1.2884    1.4109 C   0  0  0  0  0  0  0  0  0  0  0  0
    3.5672   -1.1015    2.7054 C   0  0  0  0  0  0  0  0  0  0  0  0
    4.2562   -2.2498    3.0321 C   0  0  0  0  0  0  0  0  0  0  0  0
    4.2353   -3.0846    2.0153 O   0  0  0  0  0  0  0  0  0  0  0  0
    3.5608   -2.5410    1.0277 C   0  0  0  0  0  0  0  0  0  0  0  0
    5.4043   -0.4952   -2.4255 H   0  0  0  0  0  0  0  0  0  0  0  0
    5.1444    1.2838   -2.6324 H   0  0  0  0  0  0  0  0  0  0  0  0
    3.8448    0.1206   -3.1038 H   0  0  0  0  0  0  0  0  0  0  0  0
    2.3506    0.6651    1.0883 H   0  0  0  0  0  0  0  0  0  0  0  0
    0.5525   -1.0036    1.5794 H   0  0  0  0  0  0  0  0  0  0  0  0
    0.8093   -1.8178    0.0471 H   0  0  0  0  0  0  0  0  0  0  0  0
    0.4920    1.9807    0.8448 H   0  0  0  0  0  0  0  0  0  0  0  0
    1.1429    1.7338   -0.7868 H   0  0  0  0  0  0  0  0  0  0  0  0
   -0.5094    2.3171   -0.5805 H   0  0  0  0  0  0  0  0  0  0  0  0
   -1.0082   -1.3784   -1.5422 H   0  0  0  0  0  0  0  0  0  0  0  0
    1.2908   -1.3375   -2.2268 H   0  0  0  0  0  0  0  0  0  0  0  0
    1.2109    0.4392   -2.6429 H   0  0  0  0  0  0  0  0  0  0  0  0
    0.2915   -0.7824   -3.5814 H   0  0  0  0  0  0  0  0  0  0  0  0
   -1.1526    1.4238   -2.7722 H   0  0  0  0  0  0  0  0  0  0  0  0
   -2.0827   -0.0441   -3.1572 H   0  0  0  0  0  0  0  0  0  0  0  0
   -3.7150    1.0560   -1.9797 H   0  0  0  0  0  0  0  0  0  0  0  0
   -2.5850    2.0720   -1.0887 H   0  0  0  0  0  0  0  0  0  0  0  0
   -3.3034   -2.0706    0.0612 H   0  0  0  0  0  0  0  0  0  0  0  0
   -3.4770   -1.4821   -1.6233 H   0  0  0  0  0  0  0  0  0  0  0  0
   -4.6478    2.0150    2.2827 H   0  0  0  0  0  0  0  0  0  0  0  0
   -2.3897    2.5089    3.0014 H   0  0  0  0  0  0  0  0  0  0  0  0
   -1.9974    2.7039    1.2550 H   0  0  0  0  0  0  0  0  0  0  0  0
   -0.5772    0.9123    2.4272 H   0  0  0  0  0  0  0  0  0  0  0  0
   -2.0642    0.0537    2.8267 H   0  0  0  0  0  0  0  0  0  0  0  0
   -1.6102   -1.1149    0.9906 H   0  0  0  0  0  0  0  0  0  0  0  0
    3.4085   -0.2368    3.3337 H   0  0  0  0  0  0  0  0  0  0  0  0
    4.7440   -2.4518    3.9786 H   0  0  0  0  0  0  0  0  0  0  0  0
    3.3861   -3.0134    0.0679 H   0  0  0  0  0  0  0  0  0  0  0  0
  1  2  1  0
  2  3  2  0
  2  4  1  0
  4  5  1  0
  5  6  1  0
  7  6  1  1
  7  8  1  0
  7  9  1  0
  9 10  1  0
  9 11  1  0
 11 12  1  0
 13 12  1  6
 13 14  1  0
 14 15  1  0
 15 16  1  0
 16 17  2  0
 16 18  1  0
 18 19  2  0
 19 20  1  0
 20 21  1  0
 21 22  1  0
  5 23  1  0
 23 24  1  0
 24 25  2  0
 25 26  1  0
 26 27  1  0
 22  7  1  0
 27 23  2  0
 18 13  1  0
 22 13  1  0
  1 28  1  0
  1 29  1  0
  1 30  1  0
  5 31  1  1
  6 32  1  0
  6 33  1  0
  8 34  1  0
  8 35  1  0
  8 36  1  0
  9 37  1  1
 10 38  1  0
 10 39  1  0
 10 40  1  0
 11 41  1  0
 11 42  1  0
 12 43  1  0
 12 44  1  0
 14 45  1  0
 14 46  1  0
 19 47  1  0
 20 48  1  0
 20 49  1  0
 21 50  1  0
 21 51  1  0
 22 52  1  1
 24 53  1  0
 25 54  1  0
 27 55  1  0
M  END

     RDKit          3D

 46 48  0  0  0  0  0  0  0  0999 V2000
   -3.9714   -2.6902   -0.9438 C   0  0  0  0  0  0  0  0  0  0  0  0
   -3.6912   -1.5819    0.0388 C   0  0  0  0  0  0  0  0  0  0  0  0
   -4.7099   -1.2592    1.1066 C   0  0  0  0  0  0  0  0  0  0  0  0
   -2.5250   -0.9086   -0.0699 C   0  0  0  0  0  0  0  0  0  0  0  0
   -2.0934    0.2150    0.8418 C   0  0  0  0  0  0  0  0  0  0  0  0
   -1.5499    1.3529    0.0134 C   0  0  0  0  0  0  0  0  0  0  0  0
   -2.4241    2.3151   -0.5193 C   0  0  0  0  0  0  0  0  0  0  0  0
   -3.7868    2.2679   -0.2222 O   0  0  0  0  0  0  0  0  0  0  0  0
   -1.9326    3.3089   -1.3695 C   0  0  0  0  0  0  0  0  0  0  0  0
   -0.5801    3.3604   -1.7140 C   0  0  0  0  0  0  0  0  0  0  0  0
   -0.2002    4.3366   -2.6375 O   0  0  0  0  0  0  0  0  0  0  0  0
    0.3257    2.4269   -1.1448 C   0  0  0  0  0  0  0  0  0  0  0  0
   -0.1843    1.3976   -0.3252 C   0  0  0  0  0  0  0  0  0  0  0  0
    0.6744    0.4022    0.1527 O   0  0  0  0  0  0  0  0  0  0  0  0
    1.9378    0.1468   -0.4499 C   0  0  2  0  0  0  0  0  0  0  0  0
    2.7153   -0.8168    0.4156 C   0  0  0  0  0  0  0  0  0  0  0  0
    2.9663   -0.5181    1.7667 C   0  0  0  0  0  0  0  0  0  0  0  0
    3.6727   -1.4166    2.5696 C   0  0  0  0  0  0  0  0  0  0  0  0
    4.1308   -2.6241    2.0376 C   0  0  0  0  0  0  0  0  0  0  0  0
    4.8190   -3.5170    2.8552 O   0  0  0  0  0  0  0  0  0  0  0  0
    3.8853   -2.9294    0.6932 C   0  0  0  0  0  0  0  0  0  0  0  0
    3.1829   -2.0302   -0.1149 C   0  0  0  0  0  0  0  0  0  0  0  0
    2.7005    1.4680   -0.6587 C   0  0  1  0  0  0  0  0  0  0  0  0
    3.8235    1.2326   -1.4729 O   0  0  0  0  0  0  0  0  0  0  0  0
    1.8088    2.5006   -1.3031 C   0  0  0  0  0  0  0  0  0  0  0  0
    2.3532    3.4875   -1.8629 O   0  0  0  0  0  0  0  0  0  0  0  0
   -3.1901   -3.4762   -0.8591 H   0  0  0  0  0  0  0  0  0  0  0  0
   -4.9599   -3.1634   -0.7599 H   0  0  0  0  0  0  0  0  0  0  0  0
   -3.9661   -2.2856   -1.9793 H   0  0  0  0  0  0  0  0  0  0  0  0
   -5.5828   -1.9450    1.0564 H   0  0  0  0  0  0  0  0  0  0  0  0
   -4.2511   -1.3688    2.1126 H   0  0  0  0  0  0  0  0  0  0  0  0
   -5.0851   -0.2226    0.9698 H   0  0  0  0  0  0  0  0  0  0  0  0
   -1.8187   -1.2096   -0.8422 H   0  0  0  0  0  0  0  0  0  0  0  0
   -2.9199    0.5880    1.4811 H   0  0  0  0  0  0  0  0  0  0  0  0
   -1.3193   -0.1721    1.5386 H   0  0  0  0  0  0  0  0  0  0  0  0
   -4.4422    2.9402   -0.6056 H   0  0  0  0  0  0  0  0  0  0  0  0
   -2.6179    4.0304   -1.7976 H   0  0  0  0  0  0  0  0  0  0  0  0
    0.6537    4.3084   -3.1732 H   0  0  0  0  0  0  0  0  0  0  0  0
    1.7503   -0.3113   -1.4490 H   0  0  0  0  0  0  0  0  0  0  0  0
    2.6103    0.4075    2.1990 H   0  0  0  0  0  0  0  0  0  0  0  0
    3.8590   -1.1741    3.6073 H   0  0  0  0  0  0  0  0  0  0  0  0
    5.1385   -4.4168    2.5071 H   0  0  0  0  0  0  0  0  0  0  0  0
    4.2361   -3.8631    0.2762 H   0  0  0  0  0  0  0  0  0  0  0  0
    2.9960   -2.2883   -1.1500 H   0  0  0  0  0  0  0  0  0  0  0  0
    3.0120    1.8722    0.3318 H   0  0  0  0  0  0  0  0  0  0  0  0
    4.5499    1.8236   -1.1465 H   0  0  0  0  0  0  0  0  0  0  0  0
  1  2  1  0
  2  3  1  0
  2  4  2  3
  4  5  1  0
  5  6  1  0
  6  7  2  0
  7  8  1  0
  7  9  1  0
  9 10  2  0
 10 11  1  0
 10 12  1  0
 12 13  2  0
 13 14  1  0
 14 15  1  0
 15 16  1  0
 16 17  2  0
 17 18  1  0
 18 19  2  0
 19 20  1  0
 19 21  1  0
 21 22  2  0
 15 23  1  0
 23 24  1  0
 23 25  1  0
 25 26  2  0
 13  6  1  0
 22 16  1  0
 25 12  1  0
  1 27  1  0
  1 28  1  0
  1 29  1  0
  3 30  1  0
  3 31  1  0
  3 32  1  0
  4 33  1  0
  5 34  1  0
  5 35  1  0
  8 36  1  0
  9 37  1  0
 11 38  1  0
 15 39  1  6
 17 40  1  0
 18 41  1  0
 20 42  1  0
 21 43  1  0
 22 44  1  0
 23 45  1  1
 24 46  1  0
M  END

     RDKit          3D

 51 54  0  0  0  0  0  0  0  0999 V2000
    6.0798    0.2571    1.4108 C   0  0  0  0  0  0  0  0  0  0  0  0
    4.9180   -0.2039    0.5945 C   0  0  0  0  0  0  0  0  0  0  0  0
    5.0092   -1.0632   -0.3975 O   0  0  0  0  0  0  0  0  0  0  0  0
    3.8149   -1.2366   -0.9271 C   0  0  0  0  0  0  0  0  0  0  0  0
    2.8967   -0.4663   -0.2368 C   0  0  0  0  0  0  0  0  0  0  0  0
    3.6057    0.2078    0.7180 C   0  0  0  0  0  0  0  0  0  0  0  0
    2.9896    1.2180    1.5773 C   0  0  0  0  0  0  0  0  0  0  0  0
    3.6441    1.7887    2.4923 O   0  0  0  0  0  0  0  0  0  0  0  0
    1.5799    1.6375    1.2649 C   0  0  0  0  0  0  0  0  0  0  0  0
    0.7298    0.4441    0.7115 C   0  0  2  0  0  0  0  0  0  0  0  0
    1.4275   -0.2417   -0.5133 C   0  0  2  0  0  0  0  0  0  0  0  0
    0.7351   -1.5751   -0.8982 C   0  0  2  0  0  0  0  0  0  0  0  0
    0.7304   -1.7054   -2.2985 O   0  0  0  0  0  0  0  0  0  0  0  0
   -0.7015   -1.6842   -0.3563 C   0  0  0  0  0  0  0  0  0  0  0  0
   -1.4845   -0.3485   -0.4436 C   0  0  1  0  0  0  0  0  0  0  0  0
   -3.0362   -0.5642   -0.1508 C   0  0  0  0  0  0  0  0  0  0  0  0
   -3.3294   -1.6749    0.8996 C   0  0  0  0  0  0  0  0  0  0  0  0
   -3.7428   -0.9904   -1.4619 C   0  0  0  0  0  0  0  0  0  0  0  0
   -3.7045    0.7485    0.3282 C   0  0  0  0  0  0  0  0  0  0  0  0
   -3.0343    1.3746    1.5620 C   0  0  0  0  0  0  0  0  0  0  0  0
   -1.5386    1.0445    1.7202 C   0  0  0  0  0  0  0  0  0  0  0  0
   -0.7797    0.8166    0.3820 C   0  0  1  0  0  0  0  0  0  0  0  0
   -0.8119    2.1392   -0.4465 C   0  0  0  0  0  0  0  0  0  0  0  0
    6.2577    1.3367    1.2319 H   0  0  0  0  0  0  0  0  0  0  0  0
    5.8699    0.0880    2.4876 H   0  0  0  0  0  0  0  0  0  0  0  0
    6.9921   -0.3097    1.1296 H   0  0  0  0  0  0  0  0  0  0  0  0
    3.6110   -1.8782   -1.7719 H   0  0  0  0  0  0  0  0  0  0  0  0
    1.1243    2.0504    2.1861 H   0  0  0  0  0  0  0  0  0  0  0  0
    1.6465    2.4497    0.5140 H   0  0  0  0  0  0  0  0  0  0  0  0
    0.7234   -0.3110    1.5310 H   0  0  0  0  0  0  0  0  0  0  0  0
    1.3772    0.4541   -1.3769 H   0  0  0  0  0  0  0  0  0  0  0  0
    1.3043   -2.4282   -0.4540 H   0  0  0  0  0  0  0  0  0  0  0  0
    0.6112   -2.6699   -2.4998 H   0  0  0  0  0  0  0  0  0  0  0  0
   -0.6525   -2.0185    0.7030 H   0  0  0  0  0  0  0  0  0  0  0  0
   -1.2285   -2.4818   -0.9229 H   0  0  0  0  0  0  0  0  0  0  0  0
   -1.3984   -0.0561   -1.5158 H   0  0  0  0  0  0  0  0  0  0  0  0
   -4.4146   -1.7108    1.1395 H   0  0  0  0  0  0  0  0  0  0  0  0
   -3.0583   -2.6800    0.5149 H   0  0  0  0  0  0  0  0  0  0  0  0
   -2.7806   -1.5100    1.8448 H   0  0  0  0  0  0  0  0  0  0  0  0
   -4.8307   -1.1459   -1.2958 H   0  0  0  0  0  0  0  0  0  0  0  0
   -3.3211   -1.9396   -1.8533 H   0  0  0  0  0  0  0  0  0  0  0  0
   -3.6289   -0.2153   -2.2494 H   0  0  0  0  0  0  0  0  0  0  0  0
   -3.7296    1.4874   -0.4983 H   0  0  0  0  0  0  0  0  0  0  0  0
   -4.7760    0.5646    0.5694 H   0  0  0  0  0  0  0  0  0  0  0  0
   -3.5654    1.0356    2.4788 H   0  0  0  0  0  0  0  0  0  0  0  0
   -3.1617    2.4779    1.5108 H   0  0  0  0  0  0  0  0  0  0  0  0
   -1.0792    1.8777    2.2912 H   0  0  0  0  0  0  0  0  0  0  0  0
   -1.4268    0.1468    2.3638 H   0  0  0  0  0  0  0  0  0  0  0  0
   -0.0903    2.1131   -1.2875 H   0  0  0  0  0  0  0  0  0  0  0  0
   -0.5748    3.0186    0.1887 H   0  0  0  0  0  0  0  0  0  0  0  0
   -1.7975    2.3320   -0.9031 H   0  0  0  0  0  0  0  0  0  0  0  0
  1  2  1  0
  2  3  1  0
  3  4  1  0
  4  5  2  0
  5  6  1  0
  6  7  1  0
  7  8  2  0
  7  9  1  0
  9 10  1  0
 10 11  1  0
 11 12  1  0
 12 13  1  0
 12 14  1  0
 14 15  1  0
 15 16  1  0
 16 17  1  0
 16 18  1  0
 16 19  1  0
 19 20  1  0
 20 21  1  0
 21 22  1  0
 22 23  1  6
  6  2  2  0
 22 10  1  0
 11  5  1  0
 22 15  1  0
  1 24  1  0
  1 25  1  0
  1 26  1  0
  4 27  1  0
  9 28  1  0
  9 29  1  0
 10 30  1  1
 11 31  1  6
 12 32  1  1
 13 33  1  0
 14 34  1  0
 14 35  1  0
 15 36  1  6
 17 37  1  0
 17 38  1  0
 17 39  1  0
 18 40  1  0
 18 41  1  0
 18 42  1  0
 19 43  1  0
 19 44  1  0
 20 45  1  0
 20 46  1  0
 21 47  1  0
 21 48  1  0
 23 49  1  0
 23 50  1  0
 23 51  1  0
M  END

     RDKit          3D

 38 40  0  0  0  0  0  0  0  0999 V2000
    6.2574   -0.8946    2.4534 C   0  0  0  0  0  0  0  0  0  0  0  0
    4.8482   -1.0536    2.3356 O   0  0  0  0  0  0  0  0  0  0  0  0
    4.0864   -0.5769    1.2581 C   0  0  0  0  0  0  0  0  0  0  0  0
    4.6676    0.0380    0.1371 C   0  0  0  0  0  0  0  0  0  0  0  0
    3.8755    0.5171   -0.9146 C   0  0  0  0  0  0  0  0  0  0  0  0
    4.5433    1.0082   -2.0387 O   0  0  0  0  0  0  0  0  0  0  0  0
    2.4573    0.4553   -0.8129 C   0  0  0  0  0  0  0  0  0  0  0  0
    1.5671    1.0670   -1.7231 C   0  0  0  0  0  0  0  0  0  0  0  0
    1.9896    1.7959   -2.6585 O   0  0  0  0  0  0  0  0  0  0  0  0
    0.1821    0.9137   -1.5534 C   0  0  0  0  0  0  0  0  0  0  0  0
   -0.7132    1.5598   -2.4097 O   0  0  0  0  0  0  0  0  0  0  0  0
   -0.2928    0.1412   -0.4766 C   0  0  0  0  0  0  0  0  0  0  0  0
   -1.7379   -0.1036   -0.2508 C   0  0  0  0  0  0  0  0  0  0  0  0
   -2.6211   -0.3285   -1.3218 C   0  0  0  0  0  0  0  0  0  0  0  0
   -3.9792   -0.5523   -1.0876 C   0  0  0  0  0  0  0  0  0  0  0  0
   -4.4790   -0.5807    0.2296 C   0  0  0  0  0  0  0  0  0  0  0  0
   -5.8407   -0.7881    0.5029 O   0  0  0  0  0  0  0  0  0  0  0  0
   -6.8586   -0.8915   -0.4899 C   0  0  0  0  0  0  0  0  0  0  0  0
   -3.5889   -0.4040    1.3056 C   0  0  0  0  0  0  0  0  0  0  0  0
   -4.0358   -0.4584    2.6254 O   0  0  0  0  0  0  0  0  0  0  0  0
   -2.2311   -0.1724    1.0623 C   0  0  0  0  0  0  0  0  0  0  0  0
    0.5711   -0.3606    0.4001 O   0  0  0  0  0  0  0  0  0  0  0  0
    1.8868   -0.2164    0.2960 C   0  0  0  0  0  0  0  0  0  0  0  0
    2.7013   -0.7268    1.3099 C   0  0  0  0  0  0  0  0  0  0  0  0
    6.7719   -1.4207    1.6215 H   0  0  0  0  0  0  0  0  0  0  0  0
    6.5182    0.1861    2.4466 H   0  0  0  0  0  0  0  0  0  0  0  0
    6.5979   -1.3365    3.4146 H   0  0  0  0  0  0  0  0  0  0  0  0
    5.7412    0.1348    0.0589 H   0  0  0  0  0  0  0  0  0  0  0  0
    4.1348    1.0443   -2.9602 H   0  0  0  0  0  0  0  0  0  0  0  0
   -0.4059    2.1436   -3.1788 H   0  0  0  0  0  0  0  0  0  0  0  0
   -2.2624   -0.3530   -2.3410 H   0  0  0  0  0  0  0  0  0  0  0  0
   -4.6325   -0.7019   -1.9342 H   0  0  0  0  0  0  0  0  0  0  0  0
   -6.8979    0.0405   -1.0937 H   0  0  0  0  0  0  0  0  0  0  0  0
   -6.6648   -1.7667   -1.1454 H   0  0  0  0  0  0  0  0  0  0  0  0
   -7.8398   -1.0313    0.0086 H   0  0  0  0  0  0  0  0  0  0  0  0
   -5.0058   -0.6354    2.8591 H   0  0  0  0  0  0  0  0  0  0  0  0
   -1.5607   -0.0378    1.9033 H   0  0  0  0  0  0  0  0  0  0  0  0
    2.2506   -1.2204    2.1624 H   0  0  0  0  0  0  0  0  0  0  0  0
  1  2  1  0
  2  3  1  0
  3  4  2  0
  4  5  1  0
  5  6  1  0
  5  7  2  0
  7  8  1  0
  8  9  2  0
  8 10  1  0
 10 11  1  0
 10 12  2  0
 12 13  1  0
 13 14  2  0
 14 15  1  0
 15 16  2  0
 16 17  1  0
 17 18  1  0
 16 19  1  0
 19 20  1  0
 19 21  2  0
 12 22  1  0
 22 23  1  0
 23 24  2  0
 24  3  1  0
 23  7  1  0
 21 13  1  0
  1 25  1  0
  1 26  1  0
  1 27  1  0
  4 28  1  0
  6 29  1  0
 11 30  1  0
 14 31  1  0
 15 32  1  0
 18 33  1  0
 18 34  1  0
 18 35  1  0
 20 36  1  0
 21 37  1  0
 24 38  1  0
M  END

     RDKit          3D

 44 45  0  0  0  0  0  0  0  0999 V2000
    6.3142   -1.8525    0.2884 C   0  0  0  0  0  0  0  0  0  0  0  0
    5.3427   -0.7183    0.1113 C   0  0  0  0  0  0  0  0  0  0  0  0
    5.8085    0.6999    0.3706 C   0  0  0  0  0  0  0  0  0  0  0  0
    4.0743   -0.9920   -0.2839 C   0  0  0  0  0  0  0  0  0  0  0  0
    3.0557    0.0880   -0.5837 C   0  0  0  0  0  0  0  0  0  0  0  0
    1.6378   -0.5002   -0.7267 C   0  0  0  0  0  0  0  0  0  0  0  0
    0.6477    0.5875   -1.0855 C   0  0  0  0  0  0  0  0  0  0  0  0
    0.4234    0.9119   -2.5342 C   0  0  0  0  0  0  0  0  0  0  0  0
    0.0458    1.2886   -0.0966 C   0  0  0  0  0  0  0  0  0  0  0  0
   -0.8895    2.4500   -0.3271 C   0  0  0  0  0  0  0  0  0  0  0  0
   -1.8721    2.4905    0.7040 O   0  0  0  0  0  0  0  0  0  0  0  0
   -2.8796    1.5305    0.8958 C   0  0  0  0  0  0  0  0  0  0  0  0
   -3.6671    1.6226    2.0491 C   0  0  0  0  0  0  0  0  0  0  0  0
   -4.6620    0.6744    2.3149 C   0  0  0  0  0  0  0  0  0  0  0  0
   -4.8956   -0.3656    1.4047 C   0  0  0  0  0  0  0  0  0  0  0  0
   -5.8752   -1.3363    1.6365 C   0  0  0  0  0  0  0  0  0  0  0  0
   -6.0691   -2.3472    0.6908 C   0  0  0  0  0  0  0  0  0  0  0  0
   -5.2643   -2.3778   -0.4492 C   0  0  0  0  0  0  0  0  0  0  0  0
   -5.4157   -3.2948   -1.2951 O   0  0  0  0  0  0  0  0  0  0  0  0
   -4.3347   -1.4455   -0.6371 O   0  0  0  0  0  0  0  0  0  0  0  0
   -4.1216   -0.4575    0.2294 C   0  0  0  0  0  0  0  0  0  0  0  0
   -3.1178    0.4839   -0.0190 C   0  0  0  0  0  0  0  0  0  0  0  0
    5.8743   -2.6238    0.9523 H   0  0  0  0  0  0  0  0  0  0  0  0
    7.2736   -1.5152    0.7407 H   0  0  0  0  0  0  0  0  0  0  0  0
    6.5410   -2.3017   -0.6943 H   0  0  0  0  0  0  0  0  0  0  0  0
    5.6582    1.3192   -0.5323 H   0  0  0  0  0  0  0  0  0  0  0  0
    6.8865    0.7364    0.6378 H   0  0  0  0  0  0  0  0  0  0  0  0
    5.2353    1.1181    1.2168 H   0  0  0  0  0  0  0  0  0  0  0  0
    3.7724   -2.0333   -0.4342 H   0  0  0  0  0  0  0  0  0  0  0  0
    3.0441    0.8450    0.2457 H   0  0  0  0  0  0  0  0  0  0  0  0
    3.3522    0.5940   -1.5390 H   0  0  0  0  0  0  0  0  0  0  0  0
    1.6238   -1.2865   -1.5199 H   0  0  0  0  0  0  0  0  0  0  0  0
    1.3360   -0.9897    0.2335 H   0  0  0  0  0  0  0  0  0  0  0  0
    0.6381    1.9867   -2.7172 H   0  0  0  0  0  0  0  0  0  0  0  0
    1.1038    0.3157   -3.1871 H   0  0  0  0  0  0  0  0  0  0  0  0
   -0.6263    0.6804   -2.8202 H   0  0  0  0  0  0  0  0  0  0  0  0
    0.2801    1.0530    0.9421 H   0  0  0  0  0  0  0  0  0  0  0  0
   -0.3002    3.3936   -0.2891 H   0  0  0  0  0  0  0  0  0  0  0  0
   -1.3883    2.4119   -1.3193 H   0  0  0  0  0  0  0  0  0  0  0  0
   -3.4906    2.4222    2.7601 H   0  0  0  0  0  0  0  0  0  0  0  0
   -5.2484    0.7518    3.2241 H   0  0  0  0  0  0  0  0  0  0  0  0
   -6.4917   -1.3041    2.5262 H   0  0  0  0  0  0  0  0  0  0  0  0
   -6.8221   -3.1066    0.8438 H   0  0  0  0  0  0  0  0  0  0  0  0
   -2.5373    0.3926   -0.9325 H   0  0  0  0  0  0  0  0  0  0  0  0
  1  2  1  0
  2  3  1  0
  2  4  2  3
  4  5  1  0
  5  6  1  0
  6  7  1  0
  7  8  1  0
  7  9  2  0
  9 10  1  0
 10 11  1  0
 11 12  1  0
 12 13  2  0
 13 14  1  0
 14 15  2  0
 15 16  1  0
 16 17  2  0
 17 18  1  0
 18 19  2  0
 18 20  1  0
 20 21  1  0
 21 22  2  0
 22 12  1  0
 21 15  1  0
  1 23  1  0
  1 24  1  0
  1 25  1  0
  3 26  1  0
  3 27  1  0
  3 28  1  0
  4 29  1  0
  5 30  1  0
  5 31  1  0
  6 32  1  0
  6 33  1  0
  8 34  1  0
  8 35  1  0
  8 36  1  0
  9 37  1  0
 10 38  1  0
 10 39  1  0
 13 40  1  0
 14 41  1  0
 16 42  1  0
 17 43  1  0
 22 44  1  0
M  END

     RDKit          3D

 51 53  0  0  0  0  0  0  0  0999 V2000
    3.5104    1.7691   -2.4353 C   0  0  0  0  0  0  0  0  0  0  0  0
    4.2072    1.2689   -1.2987 O   0  0  0  0  0  0  0  0  0  0  0  0
    3.6200    0.4977   -0.2831 C   0  0  0  0  0  0  0  0  0  0  0  0
    2.2411    0.2094   -0.2597 C   0  0  0  0  0  0  0  0  0  0  0  0
    1.6874   -0.5773    0.7680 C   0  0  0  0  0  0  0  0  0  0  0  0
    0.1962   -0.8927    0.7905 C   0  0  1  0  0  0  0  0  0  0  0  0
   -0.6083    0.3985    0.8862 C   0  0  0  0  0  0  0  0  0  0  0  0
   -0.3012    1.3267    1.8991 C   0  0  0  0  0  0  0  0  0  0  0  0
   -1.0515    2.4942    2.0616 C   0  0  0  0  0  0  0  0  0  0  0  0
   -0.7028    3.3809    3.0811 O   0  0  0  0  0  0  0  0  0  0  0  0
   -2.1430    2.7536    1.2222 C   0  0  0  0  0  0  0  0  0  0  0  0
   -2.8901    3.9254    1.4254 O   0  0  0  0  0  0  0  0  0  0  0  0
   -4.0823    4.2549    0.7165 C   0  0  0  0  0  0  0  0  0  0  0  0
   -2.4616    1.8304    0.2110 C   0  0  0  0  0  0  0  0  0  0  0  0
   -1.7189    0.6486    0.0497 C   0  0  0  0  0  0  0  0  0  0  0  0
   -2.1109   -0.3179   -1.0362 C   0  0  0  0  0  0  0  0  0  0  0  0
   -1.7372   -1.7738   -0.6782 C   0  0  1  0  0  0  0  0  0  0  0  0
   -2.4423   -2.1259    0.4936 O   0  0  0  0  0  0  0  0  0  0  0  0
   -2.1535   -2.7000   -1.8606 C   0  0  0  0  0  0  0  0  0  0  0  0
   -3.5138   -2.5513   -2.1793 O   0  0  0  0  0  0  0  0  0  0  0  0
   -0.1906   -1.8064   -0.4197 C   0  0  2  0  0  0  0  0  0  0  0  0
    0.3836   -3.2330   -0.2166 C   0  0  0  0  0  0  0  0  0  0  0  0
    0.5249   -3.8827   -1.4501 O   0  0  0  0  0  0  0  0  0  0  0  0
    2.5287   -1.0554    1.7860 C   0  0  0  0  0  0  0  0  0  0  0  0
    3.8952   -0.7672    1.7691 C   0  0  0  0  0  0  0  0  0  0  0  0
    4.4429    0.0050    0.7377 C   0  0  0  0  0  0  0  0  0  0  0  0
    5.8082    0.2919    0.7212 O   0  0  0  0  0  0  0  0  0  0  0  0
    4.2250    2.3099   -3.0864 H   0  0  0  0  0  0  0  0  0  0  0  0
    3.0599    0.9321   -3.0117 H   0  0  0  0  0  0  0  0  0  0  0  0
    2.7187    2.4764   -2.1114 H   0  0  0  0  0  0  0  0  0  0  0  0
    1.5931    0.5922   -1.0336 H   0  0  0  0  0  0  0  0  0  0  0  0
   -0.0454   -1.4576    1.7203 H   0  0  0  0  0  0  0  0  0  0  0  0
    0.5234    1.1425    2.5760 H   0  0  0  0  0  0  0  0  0  0  0  0
   -1.2099    4.2424    3.2465 H   0  0  0  0  0  0  0  0  0  0  0  0
   -4.4766    5.2190    1.0942 H   0  0  0  0  0  0  0  0  0  0  0  0
   -3.8675    4.3579   -0.3675 H   0  0  0  0  0  0  0  0  0  0  0  0
   -4.8534    3.4719    0.8792 H   0  0  0  0  0  0  0  0  0  0  0  0
   -3.2938    2.0166   -0.4521 H   0  0  0  0  0  0  0  0  0  0  0  0
   -1.5996   -0.0100   -1.9766 H   0  0  0  0  0  0  0  0  0  0  0  0
   -3.2082   -0.2501   -1.2144 H   0  0  0  0  0  0  0  0  0  0  0  0
   -2.3878   -3.1114    0.6162 H   0  0  0  0  0  0  0  0  0  0  0  0
   -1.9512   -3.7682   -1.6217 H   0  0  0  0  0  0  0  0  0  0  0  0
   -1.5521   -2.4472   -2.7630 H   0  0  0  0  0  0  0  0  0  0  0  0
   -4.0247   -3.0359   -1.4789 H   0  0  0  0  0  0  0  0  0  0  0  0
    0.3006   -1.3965   -1.3322 H   0  0  0  0  0  0  0  0  0  0  0  0
    1.3890   -3.1779    0.2584 H   0  0  0  0  0  0  0  0  0  0  0  0
   -0.2643   -3.8328    0.4566 H   0  0  0  0  0  0  0  0  0  0  0  0
    0.8951   -4.7840   -1.2500 H   0  0  0  0  0  0  0  0  0  0  0  0
    2.1300   -1.6619    2.5907 H   0  0  0  0  0  0  0  0  0  0  0  0
    4.5325   -1.1548    2.5565 H   0  0  0  0  0  0  0  0  0  0  0  0
    6.4296   -0.0441    1.4499 H   0  0  0  0  0  0  0  0  0  0  0  0
  1  2  1  0
  2  3  1  0
  3  4  2  0
  4  5  1  0
  5  6  1  0
  6  7  1  0
  7  8  2  0
  8  9  1  0
  9 10  1  0
  9 11  2  0
 11 12  1  0
 12 13  1  0
 11 14  1  0
 14 15  2  0
 15 16  1  0
 16 17  1  0
 17 18  1  1
 17 19  1  0
 19 20  1  0
 17 21  1  0
 21 22  1  0
 22 23  1  0
  5 24  2  0
 24 25  1  0
 25 26  2  0
 26 27  1  0
 26  3  1  0
 21  6  1  0
 15  7  1  0
  1 28  1  0
  1 29  1  0
  1 30  1  0
  4 31  1  0
  6 32  1  1
  8 33  1  0
 10 34  1  0
 13 35  1  0
 13 36  1  0
 13 37  1  0
 14 38  1  0
 16 39  1  0
 16 40  1  0
 18 41  1  0
 19 42  1  0
 19 43  1  0
 20 44  1  0
 21 45  1  6
 22 46  1  0
 22 47  1  0
 23 48  1  0
 24 49  1  0
 25 50  1  0
 27 51  1  0
M  END

     RDKit          3D

 44 48  0  0  0  0  0  0  0  0999 V2000
   -5.7443    2.5785   -0.1592 C   0  0  0  0  0  0  0  0  0  0  0  0
   -5.3380    1.2228   -0.3252 O   0  0  0  0  0  0  0  0  0  0  0  0
   -4.0175    0.7608   -0.1947 C   0  0  0  0  0  0  0  0  0  0  0  0
   -2.9506    1.6189    0.1142 C   0  0  0  0  0  0  0  0  0  0  0  0
   -1.6367    1.1248    0.2423 C   0  0  0  0  0  0  0  0  0  0  0  0
   -0.5850    1.9805    0.6081 C   0  0  0  0  0  0  0  0  0  0  0  0
   -0.8272    3.1992    0.8348 O   0  0  0  0  0  0  0  0  0  0  0  0
    0.6920    1.5068    0.7499 N   0  0  0  0  0  0  0  0  0  0  0  0
    1.6276    2.3398    1.5341 C   0  0  0  0  0  0  0  0  0  0  0  0
    1.0107    0.2262    0.3351 C   0  0  0  0  0  0  0  0  0  0  0  0
    2.3560   -0.2037    0.1001 C   0  0  0  0  0  0  0  0  0  0  0  0
    3.4114    0.7015   -0.2010 C   0  0  0  0  0  0  0  0  0  0  0  0
    4.6982    0.1979   -0.3577 C   0  0  0  0  0  0  0  0  0  0  0  0
    4.9656   -1.1272   -0.2888 C   0  0  0  0  0  0  0  0  0  0  0  0
    3.9689   -2.0688   -0.0908 C   0  0  0  0  0  0  0  0  0  0  0  0
    2.6442   -1.6066    0.0689 C   0  0  0  0  0  0  0  0  0  0  0  0
    1.6058   -2.5285    0.1405 C   0  0  0  0  0  0  0  0  0  0  0  0
    0.2855   -2.0988    0.1292 C   0  0  0  0  0  0  0  0  0  0  0  0
   -0.0405   -0.7228    0.1681 C   0  0  0  0  0  0  0  0  0  0  0  0
   -1.3800   -0.2532    0.0645 C   0  0  0  0  0  0  0  0  0  0  0  0
   -2.4660   -1.0994   -0.2638 C   0  0  0  0  0  0  0  0  0  0  0  0
   -3.7756   -0.6007   -0.3797 C   0  0  0  0  0  0  0  0  0  0  0  0
   -4.8709   -1.4304   -0.6773 O   0  0  0  0  0  0  0  0  0  0  0  0
   -4.8032   -2.8437   -0.8203 C   0  0  0  0  0  0  0  0  0  0  0  0
    6.3155   -1.3398   -0.4786 O   0  0  0  0  0  0  0  0  0  0  0  0
    6.9380   -0.0639   -0.6759 C   0  0  0  0  0  0  0  0  0  0  0  0
    5.8686    0.8894   -0.6107 O   0  0  0  0  0  0  0  0  0  0  0  0
   -5.2404    3.2276   -0.9055 H   0  0  0  0  0  0  0  0  0  0  0  0
   -5.5146    2.9251    0.8714 H   0  0  0  0  0  0  0  0  0  0  0  0
   -6.8390    2.6481   -0.3160 H   0  0  0  0  0  0  0  0  0  0  0  0
   -3.1471    2.6728    0.2621 H   0  0  0  0  0  0  0  0  0  0  0  0
    1.1062    2.7877    2.4088 H   0  0  0  0  0  0  0  0  0  0  0  0
    2.0198    3.1702    0.9101 H   0  0  0  0  0  0  0  0  0  0  0  0
    2.4505    1.7407    1.9740 H   0  0  0  0  0  0  0  0  0  0  0  0
    3.2486    1.7559   -0.3578 H   0  0  0  0  0  0  0  0  0  0  0  0
    4.2131   -3.1259   -0.0905 H   0  0  0  0  0  0  0  0  0  0  0  0
    1.8168   -3.5937    0.1381 H   0  0  0  0  0  0  0  0  0  0  0  0
   -0.4569   -2.8780    0.1308 H   0  0  0  0  0  0  0  0  0  0  0  0
   -2.3151   -2.1416   -0.4720 H   0  0  0  0  0  0  0  0  0  0  0  0
   -5.8244   -3.2392   -0.9966 H   0  0  0  0  0  0  0  0  0  0  0  0
   -4.1659   -3.1064   -1.6897 H   0  0  0  0  0  0  0  0  0  0  0  0
   -4.3972   -3.3017    0.1052 H   0  0  0  0  0  0  0  0  0  0  0  0
    7.6715    0.1254    0.1358 H   0  0  0  0  0  0  0  0  0  0  0  0
    7.4217   -0.0266   -1.6743 H   0  0  0  0  0  0  0  0  0  0  0  0
  1  2  1  0
  2  3  1  0
  3  4  2  0
  4  5  1  0
  5  6  1  0
  6  7  2  0
  6  8  1  0
  8  9  1  0
  8 10  1  0
 10 11  2  0
 11 12  1  0
 12 13  2  0
 13 14  1  0
 14 15  2  0
 15 16  1  0
 16 17  2  0
 17 18  1  0
 18 19  2  0
 19 20  1  0
 20 21  1  0
 21 22  2  0
 22 23  1  0
 23 24  1  0
 14 25  1  0
 25 26  1  0
 26 27  1  0
 22  3  1  0
 20  5  2  0
 19 10  1  0
 16 11  1  0
 27 13  1  0
  1 28  1  0
  1 29  1  0
  1 30  1  0
  4 31  1  0
  9 32  1  0
  9 33  1  0
  9 34  1  0
 12 35  1  0
 15 36  1  0
 17 37  1  0
 18 38  1  0
 21 39  1  0
 24 40  1  0
 24 41  1  0
 24 42  1  0
 26 43  1  0
 26 44  1  0
M  END

     RDKit          3D

 17 17  0  0  0  0  0  0  0  0999 V2000
    3.2658    0.2489    0.2897 N   0  0  0  0  0  0  0  0  0  0  0  0
    2.0440   -0.4508    0.0592 C   0  0  0  0  0  0  0  0  0  0  0  0
    2.0562   -1.5210   -0.6069 O   0  0  0  0  0  0  0  0  0  0  0  0
    0.8133    0.0632    0.5835 N   0  0  0  0  0  0  0  0  0  0  0  0
   -0.4683   -0.5942    0.3271 C   0  0  2  0  0  0  0  0  0  0  0  0
   -0.9413   -0.2697   -1.0161 N   0  0  0  0  0  0  0  0  0  0  0  0
   -2.1787    0.4171   -0.8911 C   0  0  0  0  0  0  0  0  0  0  0  0
   -2.8454    0.8294   -1.8759 O   0  0  0  0  0  0  0  0  0  0  0  0
   -2.5872    0.5871    0.4517 N   0  0  0  0  0  0  0  0  0  0  0  0
   -1.5520   -0.0310    1.2014 C   0  0  0  0  0  0  0  0  0  0  0  0
   -1.5634   -0.1016    2.4585 O   0  0  0  0  0  0  0  0  0  0  0  0
    3.2743    1.1362    0.8397 H   0  0  0  0  0  0  0  0  0  0  0  0
    4.1654   -0.1209   -0.0903 H   0  0  0  0  0  0  0  0  0  0  0  0
    0.8332    0.9737    1.0972 H   0  0  0  0  0  0  0  0  0  0  0  0
   -0.3944   -1.6945    0.4656 H   0  0  0  0  0  0  0  0  0  0  0  0
   -0.4669   -0.5181   -1.9126 H   0  0  0  0  0  0  0  0  0  0  0  0
   -3.4545    1.0462    0.8080 H   0  0  0  0  0  0  0  0  0  0  0  0
  1  2  1  0
  2  3  2  0
  2  4  1  0
  4  5  1  0
  5  6  1  0
  6  7  1  0
  7  8  2  0
  7  9  1  0
  9 10  1  0
 10 11  2  0
 10  5  1  0
  1 12  1  0
  1 13  1  0
  4 14  1  0
  5 15  1  6
  6 16  1  0
  9 17  1  0
M  END

     RDKit          3D

 33 36  0  0  0  0  0  0  0  0999 V2000
   -1.8031   -2.7269    0.4554 C   0  0  0  0  0  0  0  0  0  0  0  0
   -1.3251   -1.3061    0.2532 C   0  0  0  0  0  0  0  0  0  0  0  0
   -2.2375   -0.2262    0.0733 C   0  0  0  0  0  0  0  0  0  0  0  0
   -3.6271   -0.4534   -0.0135 C   0  0  0  0  0  0  0  0  0  0  0  0
   -4.5005    0.6129   -0.2055 C   0  0  0  0  0  0  0  0  0  0  0  0
   -4.0220    1.8727   -0.3317 N   0  0  0  0  0  0  0  0  0  0  0  0
   -2.6961    2.1490   -0.2596 C   0  0  0  0  0  0  0  0  0  0  0  0
   -1.7534    1.1192   -0.0397 C   0  0  0  0  0  0  0  0  0  0  0  0
   -0.3544    1.3888    0.0402 C   0  0  0  0  0  0  0  0  0  0  0  0
    0.1920    2.7930    0.1426 C   0  0  0  0  0  0  0  0  0  0  0  0
    0.5152    0.2834    0.0514 C   0  0  0  0  0  0  0  0  0  0  0  0
    0.0461   -1.0152    0.1799 C   0  0  0  0  0  0  0  0  0  0  0  0
    1.0669   -1.9056    0.1932 N   0  0  0  0  0  0  0  0  0  0  0  0
    2.1854   -1.1723    0.0569 C   0  0  0  0  0  0  0  0  0  0  0  0
    3.4884   -1.6606   -0.0320 C   0  0  0  0  0  0  0  0  0  0  0  0
    4.5264   -0.7395   -0.2448 C   0  0  0  0  0  0  0  0  0  0  0  0
    4.2427    0.6338   -0.3853 C   0  0  0  0  0  0  0  0  0  0  0  0
    2.9199    1.1032   -0.3001 C   0  0  0  0  0  0  0  0  0  0  0  0
    1.9014    0.1737   -0.0470 C   0  0  0  0  0  0  0  0  0  0  0  0
   -2.1598   -3.1437   -0.5109 H   0  0  0  0  0  0  0  0  0  0  0  0
   -1.0149   -3.3874    0.8653 H   0  0  0  0  0  0  0  0  0  0  0  0
   -2.6253   -2.7556    1.2007 H   0  0  0  0  0  0  0  0  0  0  0  0
   -4.0523   -1.4455    0.0431 H   0  0  0  0  0  0  0  0  0  0  0  0
   -5.5659    0.4357   -0.2730 H   0  0  0  0  0  0  0  0  0  0  0  0
   -2.3966    3.1734   -0.4164 H   0  0  0  0  0  0  0  0  0  0  0  0
   -0.5261    3.4888    0.6191 H   0  0  0  0  0  0  0  0  0  0  0  0
    0.4685    3.1691   -0.8656 H   0  0  0  0  0  0  0  0  0  0  0  0
    1.0667    2.8150    0.8228 H   0  0  0  0  0  0  0  0  0  0  0  0
    1.0250   -2.9466    0.2467 H   0  0  0  0  0  0  0  0  0  0  0  0
    3.6949   -2.7198    0.0493 H   0  0  0  0  0  0  0  0  0  0  0  0
    5.5478   -1.0883   -0.3228 H   0  0  0  0  0  0  0  0  0  0  0  0
    5.0483    1.3316   -0.5754 H   0  0  0  0  0  0  0  0  0  0  0  0
    2.7244    2.1495   -0.4698 H   0  0  0  0  0  0  0  0  0  0  0  0
  1  2  1  0
  2  3  2  0
  3  4  1  0
  4  5  2  0
  5  6  1  0
  6  7  2  0
  7  8  1  0
  8  9  2  0
  9 10  1  0
  9 11  1  0
 11 12  2  0
 12 13  1  0
 13 14  1  0
 14 15  2  0
 15 16  1  0
 16 17  2  0
 17 18  1  0
 18 19  2  0
 12  2  1  0
 19 14  1  0
  8  3  1  0
 19 11  1  0
  1 20  1  0
  1 21  1  0
  1 22  1  0
  4 23  1  0
  5 24  1  0
  7 25  1  0
 10 26  1  0
 10 27  1  0
 10 28  1  0
 13 29  1  0
 15 30  1  0
 16 31  1  0
 17 32  1  0
 18 33  1  0
M  END

     RDKit          3D

 21 21  0  0  0  0  0  0  0  0999 V2000
   -3.0156   -2.1555    0.2110 C   0  0  0  0  0  0  0  0  0  0  0  0
   -2.1373   -1.0786   -0.3299 C   0  0  0  0  0  0  0  0  0  0  0  0
   -2.4824   -0.4506   -1.3679 O   0  0  0  0  0  0  0  0  0  0  0  0
   -0.9036   -0.8347    0.2867 O   0  0  0  0  0  0  0  0  0  0  0  0
   -0.0876    0.2848    0.0556 C   0  0  0  0  0  0  0  0  0  0  0  0
   -0.6530    1.5420   -0.2337 C   0  0  0  0  0  0  0  0  0  0  0  0
    0.1606    2.6546   -0.4485 C   0  0  0  0  0  0  0  0  0  0  0  0
    1.5460    2.5319   -0.3683 C   0  0  0  0  0  0  0  0  0  0  0  0
    2.1234    1.2983   -0.0651 C   0  0  0  0  0  0  0  0  0  0  0  0
    1.3208    0.1626    0.1573 C   0  0  0  0  0  0  0  0  0  0  0  0
    1.9772   -1.1309    0.4797 C   0  0  0  0  0  0  0  0  0  0  0  0
    1.2971   -2.1756    0.6646 O   0  0  0  0  0  0  0  0  0  0  0  0
    3.3646   -1.2040    0.5798 O   0  0  0  0  0  0  0  0  0  0  0  0
   -3.9688   -2.2082   -0.3604 H   0  0  0  0  0  0  0  0  0  0  0  0
   -3.2423   -1.9444    1.2790 H   0  0  0  0  0  0  0  0  0  0  0  0
   -2.4919   -3.1342    0.1349 H   0  0  0  0  0  0  0  0  0  0  0  0
   -1.7259    1.6721   -0.2649 H   0  0  0  0  0  0  0  0  0  0  0  0
   -0.2847    3.6160   -0.6699 H   0  0  0  0  0  0  0  0  0  0  0  0
    2.1749    3.3968   -0.5361 H   0  0  0  0  0  0  0  0  0  0  0  0
    3.2028    1.2358   -0.0051 H   0  0  0  0  0  0  0  0  0  0  0  0
    3.8258   -2.0780    0.8013 H   0  0  0  0  0  0  0  0  0  0  0  0
  1  2  1  0
  2  3  2  0
  2  4  1  0
  4  5  1  0
  5  6  2  0
  6  7  1  0
  7  8  2  0
  8  9  1  0
  9 10  2  0
 10 11  1  0
 11 12  2  0
 11 13  1  0
 10  5  1  0
  1 14  1  0
  1 15  1  0
  1 16  1  0
  6 17  1  0
  7 18  1  0
  8 19  1  0
  9 20  1  0
 13 21  1  0
M  END

     RDKit          3D

 44 46  0  0  0  0  0  0  0  0999 V2000
    5.0278    0.1723   -1.5684 C   0  0  0  0  0  0  0  0  0  0  0  0
    3.6588    0.0317   -1.0383 N   0  0  0  0  0  0  0  0  0  0  0  0
    3.5018   -1.1541   -0.1868 C   0  0  1  0  0  0  0  0  0  0  0  0
    4.0694   -0.7735    1.1912 C   0  0  0  0  0  0  0  0  0  0  0  0
    3.9488    0.7418    1.2357 C   0  0  0  0  0  0  0  0  0  0  0  0
    3.2967    1.1055   -0.1064 C   0  0  2  0  0  0  0  0  0  0  0  0
    1.7472    1.1242    0.0245 C   0  0  0  0  0  0  0  0  0  0  0  0
    1.0910   -0.2259   -0.3810 C   0  0  0  0  0  0  0  0  0  0  0  0
   -0.1706   -0.3737    0.2723 O   0  0  0  0  0  0  0  0  0  0  0  0
   -1.3039    0.3754   -0.0710 C   0  0  0  0  0  0  0  0  0  0  0  0
   -1.2778    1.1421   -1.0815 O   0  0  0  0  0  0  0  0  0  0  0  0
   -2.5467    0.3192    0.7876 C   0  0  2  0  0  0  0  0  0  0  0  0
   -2.5688   -0.9137    1.7079 C   0  0  0  0  0  0  0  0  0  0  0  0
   -1.5518   -0.8213    2.6695 O   0  0  0  0  0  0  0  0  0  0  0  0
   -3.8015    0.3501   -0.0666 C   0  0  0  0  0  0  0  0  0  0  0  0
   -4.7805    1.3375    0.1486 C   0  0  0  0  0  0  0  0  0  0  0  0
   -5.9323    1.3768   -0.6425 C   0  0  0  0  0  0  0  0  0  0  0  0
   -6.1238    0.4255   -1.6484 C   0  0  0  0  0  0  0  0  0  0  0  0
   -5.1682   -0.5709   -1.8579 C   0  0  0  0  0  0  0  0  0  0  0  0
   -4.0119   -0.6106   -1.0741 C   0  0  0  0  0  0  0  0  0  0  0  0
    1.9796   -1.4626   -0.0808 C   0  0  0  0  0  0  0  0  0  0  0  0
    5.1957   -0.5793   -2.3693 H   0  0  0  0  0  0  0  0  0  0  0  0
    5.1612    1.1785   -2.0156 H   0  0  0  0  0  0  0  0  0  0  0  0
    5.8001    0.0364   -0.7846 H   0  0  0  0  0  0  0  0  0  0  0  0
    4.0329   -2.0384   -0.6058 H   0  0  0  0  0  0  0  0  0  0  0  0
    5.1393   -1.0761    1.2534 H   0  0  0  0  0  0  0  0  0  0  0  0
    3.5312   -1.2489    2.0401 H   0  0  0  0  0  0  0  0  0  0  0  0
    4.9592    1.2054    1.2874 H   0  0  0  0  0  0  0  0  0  0  0  0
    3.3596    1.0810    2.1167 H   0  0  0  0  0  0  0  0  0  0  0  0
    3.6506    2.1000   -0.4571 H   0  0  0  0  0  0  0  0  0  0  0  0
    1.3505    1.9205   -0.6404 H   0  0  0  0  0  0  0  0  0  0  0  0
    1.4300    1.4038    1.0516 H   0  0  0  0  0  0  0  0  0  0  0  0
    0.9269   -0.2114   -1.4830 H   0  0  0  0  0  0  0  0  0  0  0  0
   -2.5263    1.2245    1.4337 H   0  0  0  0  0  0  0  0  0  0  0  0
   -2.4417   -1.8429    1.1087 H   0  0  0  0  0  0  0  0  0  0  0  0
   -3.5527   -0.9617    2.2216 H   0  0  0  0  0  0  0  0  0  0  0  0
   -1.6130   -1.6452    3.2215 H   0  0  0  0  0  0  0  0  0  0  0  0
   -4.6500    2.0824    0.9231 H   0  0  0  0  0  0  0  0  0  0  0  0
   -6.6728    2.1470   -0.4799 H   0  0  0  0  0  0  0  0  0  0  0  0
   -7.0148    0.4580   -2.2608 H   0  0  0  0  0  0  0  0  0  0  0  0
   -5.3192   -1.3093   -2.6333 H   0  0  0  0  0  0  0  0  0  0  0  0
   -3.2733   -1.3786   -1.2620 H   0  0  0  0  0  0  0  0  0  0  0  0
    1.7271   -2.2601   -0.8109 H   0  0  0  0  0  0  0  0  0  0  0  0
    1.7162   -1.8811    0.9116 H   0  0  0  0  0  0  0  0  0  0  0  0
  1  2  1  0
  2  3  1  0
  3  4  1  0
  4  5  1  0
  5  6  1  0
  6  7  1  0
  7  8  1  0
  8  9  1  0
  9 10  1  0
 10 11  2  0
 10 12  1  0
 12 13  1  0
 13 14  1  0
 12 15  1  0
 15 16  2  0
 16 17  1  0
 17 18  2  0
 18 19  1  0
 19 20  2  0
  8 21  1  0
  6  2  1  0
 20 15  1  0
 21  3  1  0
  1 22  1  0
  1 23  1  0
  1 24  1  0
  3 25  1  6
  4 26  1  0
  4 27  1  0
  5 28  1  0
  5 29  1  0
  6 30  1  6
  7 31  1  0
  7 32  1  0
  8 33  1  0
 12 34  1  1
 13 35  1  0
 13 36  1  0
 14 37  1  0
 16 38  1  0
 17 39  1  0
 18 40  1  0
 19 41  1  0
 20 42  1  0
 21 43  1  0
 21 44  1  0
M  END

     RDKit          3D

 34 35  0  0  0  0  0  0  0  0999 V2000
   -1.0741    3.2584   -2.4493 C   0  0  0  0  0  0  0  0  0  0  0  0
   -0.6121    2.4819   -1.3488 O   0  0  0  0  0  0  0  0  0  0  0  0
   -1.1958    1.2776   -0.9190 C   0  0  0  0  0  0  0  0  0  0  0  0
   -2.3220    0.7330   -1.5665 C   0  0  0  0  0  0  0  0  0  0  0  0
   -2.8807   -0.4687   -1.1317 C   0  0  0  0  0  0  0  0  0  0  0  0
   -2.3250   -1.1468   -0.0435 C   0  0  0  0  0  0  0  0  0  0  0  0
   -2.8638   -2.3558    0.4088 C   0  0  0  0  0  0  0  0  0  0  0  0
   -2.2801   -3.0019    1.4963 C   0  0  0  0  0  0  0  0  0  0  0  0
   -1.1674   -2.4206    2.1094 C   0  0  0  0  0  0  0  0  0  0  0  0
   -0.6247   -2.9865    3.0941 O   0  0  0  0  0  0  0  0  0  0  0  0
   -0.6759   -1.2700    1.6585 O   0  0  0  0  0  0  0  0  0  0  0  0
   -1.1976   -0.6158    0.6213 C   0  0  0  0  0  0  0  0  0  0  0  0
   -0.6317    0.6019    0.1869 C   0  0  0  0  0  0  0  0  0  0  0  0
    0.6032    1.1575    0.8607 C   0  0  0  0  0  0  0  0  0  0  0  0
    1.8293    0.8343    0.0401 C   0  0  0  0  0  0  0  0  0  0  0  0
    2.8200   -0.0040    0.4170 C   0  0  0  0  0  0  0  0  0  0  0  0
    2.8188   -0.7033    1.7545 C   0  0  0  0  0  0  0  0  0  0  0  0
    3.9622   -0.2373   -0.5386 C   0  0  0  0  0  0  0  0  0  0  0  0
   -2.1155    3.5974   -2.2658 H   0  0  0  0  0  0  0  0  0  0  0  0
   -0.4265    4.1518   -2.5606 H   0  0  0  0  0  0  0  0  0  0  0  0
   -1.0213    2.6628   -3.3850 H   0  0  0  0  0  0  0  0  0  0  0  0
   -2.7729    1.2306   -2.4142 H   0  0  0  0  0  0  0  0  0  0  0  0
   -3.7453   -0.8693   -1.6474 H   0  0  0  0  0  0  0  0  0  0  0  0
   -3.7290   -2.7953   -0.0733 H   0  0  0  0  0  0  0  0  0  0  0  0
   -2.6874   -3.9377    1.8583 H   0  0  0  0  0  0  0  0  0  0  0  0
    0.5180    2.2622    0.9402 H   0  0  0  0  0  0  0  0  0  0  0  0
    0.6823    0.7962    1.9059 H   0  0  0  0  0  0  0  0  0  0  0  0
    1.8926    1.3036   -0.9388 H   0  0  0  0  0  0  0  0  0  0  0  0
    2.8185    0.0446    2.5750 H   0  0  0  0  0  0  0  0  0  0  0  0
    3.7170   -1.3428    1.8807 H   0  0  0  0  0  0  0  0  0  0  0  0
    1.9269   -1.3558    1.8400 H   0  0  0  0  0  0  0  0  0  0  0  0
    3.5760   -0.6653   -1.4873 H   0  0  0  0  0  0  0  0  0  0  0  0
    4.4721    0.7251   -0.7558 H   0  0  0  0  0  0  0  0  0  0  0  0
    4.7120   -0.9420   -0.1222 H   0  0  0  0  0  0  0  0  0  0  0  0
  1  2  1  0
  2  3  1  0
  3  4  2  0
  4  5  1  0
  5  6  2  0
  6  7  1  0
  7  8  2  0
  8  9  1  0
  9 10  2  0
  9 11  1  0
 11 12  1  0
 12 13  2  0
 13 14  1  0
 14 15  1  0
 15 16  2  3
 16 17  1  0
 16 18  1  0
 13  3  1  0
 12  6  1  0
  1 19  1  0
  1 20  1  0
  1 21  1  0
  4 22  1  0
  5 23  1  0
  7 24  1  0
  8 25  1  0
 14 26  1  0
 14 27  1  0
 15 28  1  0
 17 29  1  0
 17 30  1  0
 17 31  1  0
 18 32  1  0
 18 33  1  0
 18 34  1  0
M  END

     RDKit          3D

 24 25  0  0  0  0  0  0  0  0999 V2000
   -2.0358   -2.4420   -0.0351 C   0  0  0  0  0  0  0  0  0  0  0  0
   -1.2529   -1.1953    0.0008 N   0  0  0  0  0  0  0  0  0  0  0  0
    0.1227   -1.2487   -0.0142 C   0  0  0  0  0  0  0  0  0  0  0  0
    0.7353   -2.3512   -0.0415 O   0  0  0  0  0  0  0  0  0  0  0  0
    0.8263   -0.0516    0.0012 C   0  0  0  0  0  0  0  0  0  0  0  0
    0.1692    1.1304    0.0061 C   0  0  0  0  0  0  0  0  0  0  0  0
    1.0383    2.1613    0.0289 N   0  0  0  0  0  0  0  0  0  0  0  0
    2.2457    1.5384    0.0364 C   0  0  0  0  0  0  0  0  0  0  0  0
    2.1484    0.1863    0.0180 N   0  0  0  0  0  0  0  0  0  0  0  0
    3.2471   -0.7741    0.0242 C   0  0  0  0  0  0  0  0  0  0  0  0
   -1.1891    1.2073   -0.0228 N   0  0  0  0  0  0  0  0  0  0  0  0
   -1.8716    2.5078    0.0048 C   0  0  0  0  0  0  0  0  0  0  0  0
   -1.9035    0.0281   -0.0171 C   0  0  0  0  0  0  0  0  0  0  0  0
   -3.1666    0.0668   -0.0295 O   0  0  0  0  0  0  0  0  0  0  0  0
   -2.9861   -2.3336    0.5300 H   0  0  0  0  0  0  0  0  0  0  0  0
   -1.4846   -3.2820    0.4390 H   0  0  0  0  0  0  0  0  0  0  0  0
   -2.2654   -2.7066   -1.0886 H   0  0  0  0  0  0  0  0  0  0  0  0
    3.1869    2.0727    0.0549 H   0  0  0  0  0  0  0  0  0  0  0  0
    3.1758   -1.4191    0.9250 H   0  0  0  0  0  0  0  0  0  0  0  0
    4.2242   -0.2460    0.0410 H   0  0  0  0  0  0  0  0  0  0  0  0
    3.1992   -1.4041   -0.8886 H   0  0  0  0  0  0  0  0  0  0  0  0
   -1.2080    3.3233   -0.3538 H   0  0  0  0  0  0  0  0  0  0  0  0
   -2.1947    2.7360    1.0423 H   0  0  0  0  0  0  0  0  0  0  0  0
   -2.7607    2.4958   -0.6613 H   0  0  0  0  0  0  0  0  0  0  0  0
  1  2  1  0
  2  3  1  0
  3  4  2  0
  3  5  1  0
  5  6  2  0
  6  7  1  0
  7  8  2  0
  8  9  1  0
  9 10  1  0
  6 11  1  0
 11 12  1  0
 11 13  1  0
 13 14  2  0
 13  2  1  0
  9  5  1  0
  1 15  1  0
  1 16  1  0
  1 17  1  0
  8 18  1  0
 10 19  1  0
 10 20  1  0
 10 21  1  0
 12 22  1  0
 12 23  1  0
 12 24  1  0
M  END

     RDKit          3D

 17 17  0  0  0  0  0  0  0  0999 V2000
    2.8868    0.8429    0.0495 O   0  0  0  0  0  0  0  0  0  0  0  0
    2.0722   -0.0560    0.3902 C   0  0  0  0  0  0  0  0  0  0  0  0
    2.5528   -1.2293    0.9657 O   0  0  0  0  0  0  0  0  0  0  0  0
    0.6241    0.0947    0.1261 C   0  0  0  0  0  0  0  0  0  0  0  0
   -0.1188   -1.0572   -0.1917 C   0  0  0  0  0  0  0  0  0  0  0  0
   -1.4769   -0.9654   -0.5222 C   0  0  0  0  0  0  0  0  0  0  0  0
   -2.2080   -2.1061   -0.8464 O   0  0  0  0  0  0  0  0  0  0  0  0
   -2.1050    0.2804   -0.5340 C   0  0  0  0  0  0  0  0  0  0  0  0
   -1.3878    1.4301   -0.2011 C   0  0  0  0  0  0  0  0  0  0  0  0
   -0.0347    1.3512    0.1504 C   0  0  0  0  0  0  0  0  0  0  0  0
    0.6019    2.5292    0.5475 O   0  0  0  0  0  0  0  0  0  0  0  0
    3.5434   -1.3584    1.1338 H   0  0  0  0  0  0  0  0  0  0  0  0
    0.3617   -2.0281   -0.2101 H   0  0  0  0  0  0  0  0  0  0  0  0
   -1.7822   -3.0256   -0.8491 H   0  0  0  0  0  0  0  0  0  0  0  0
   -3.1535    0.3570   -0.7928 H   0  0  0  0  0  0  0  0  0  0  0  0
   -1.8922    2.3881   -0.1934 H   0  0  0  0  0  0  0  0  0  0  0  0
    1.5160    2.5525    0.9777 H   0  0  0  0  0  0  0  0  0  0  0  0
  1  2  2  0
  2  3  1  0
  2  4  1  0
  4  5  2  0
  5  6  1  0
  6  7  1  0
  6  8  2  0
  8  9  1  0
  9 10  2  0
 10 11  1  0
 10  4  1  0
  3 12  1  0
  5 13  1  0
  7 14  1  0
  8 15  1  0
  9 16  1  0
 11 17  1  0
M  END

     RDKit          3D

 30 34  0  0  0  0  0  0  0  0999 V2000
   -0.3277   -3.7772   -0.6566 O   0  0  0  0  0  0  0  0  0  0  0  0
   -0.2481   -2.5370   -0.4397 C   0  0  0  0  0  0  0  0  0  0  0  0
   -1.4664   -1.7274   -0.2408 C   0  0  0  0  0  0  0  0  0  0  0  0
   -2.7310   -2.3415   -0.2927 C   0  0  0  0  0  0  0  0  0  0  0  0
   -3.8889   -1.5913   -0.1071 C   0  0  0  0  0  0  0  0  0  0  0  0
   -3.7992   -0.2241    0.1318 C   0  0  0  0  0  0  0  0  0  0  0  0
   -2.5523    0.4022    0.1867 C   0  0  0  0  0  0  0  0  0  0  0  0
   -1.3581   -0.3334    0.0021 C   0  0  0  0  0  0  0  0  0  0  0  0
    0.0116    0.2981    0.0524 C   0  0  0  0  0  0  0  0  0  0  0  0
    0.2438    1.6724    0.2863 C   0  0  0  0  0  0  0  0  0  0  0  0
    1.4979    2.2048    0.3243 C   0  0  0  0  0  0  0  0  0  0  0  0
    2.6383    1.4417    0.1370 C   0  0  0  0  0  0  0  0  0  0  0  0
    2.4804    0.0670   -0.1002 C   0  0  0  0  0  0  0  0  0  0  0  0
    3.6047   -0.7439   -0.2952 C   0  0  0  0  0  0  0  0  0  0  0  0
    3.4353   -2.1065   -0.5298 C   0  0  0  0  0  0  0  0  0  0  0  0
    2.1892   -2.6431   -0.5688 N   0  0  0  0  0  0  0  0  0  0  0  0
    1.0683   -1.8927   -0.3848 C   0  0  0  0  0  0  0  0  0  0  0  0
    1.1741   -0.5096   -0.1437 C   0  0  0  0  0  0  0  0  0  0  0  0
    1.4314    3.5629    0.5687 O   0  0  0  0  0  0  0  0  0  0  0  0
    0.0541    3.9223    0.6949 C   0  0  0  0  0  0  0  0  0  0  0  0
   -0.6604    2.6964    0.5093 O   0  0  0  0  0  0  0  0  0  0  0  0
   -2.8253   -3.4044   -0.4773 H   0  0  0  0  0  0  0  0  0  0  0  0
   -4.8582   -2.0712   -0.1486 H   0  0  0  0  0  0  0  0  0  0  0  0
   -4.7018    0.3563    0.2757 H   0  0  0  0  0  0  0  0  0  0  0  0
   -2.5610    1.4583    0.3747 H   0  0  0  0  0  0  0  0  0  0  0  0
    3.6169    1.9048    0.1751 H   0  0  0  0  0  0  0  0  0  0  0  0
    4.6048   -0.3278   -0.2664 H   0  0  0  0  0  0  0  0  0  0  0  0
    4.2980   -2.7413   -0.6816 H   0  0  0  0  0  0  0  0  0  0  0  0
   -0.2259    4.6526   -0.0928 H   0  0  0  0  0  0  0  0  0  0  0  0
   -0.1445    4.3326    1.7071 H   0  0  0  0  0  0  0  0  0  0  0  0
  1  2  2  0
  2  3  1  0
  3  4  2  0
  4  5  1  0
  5  6  2  0
  6  7  1  0
  7  8  2  0
  8  9  1  0
  9 10  1  0
 10 11  2  0
 11 12  1  0
 12 13  2  0
 13 14  1  0
 14 15  2  0
 15 16  1  0
 16 17  2  0
 17 18  1  0
 11 19  1  0
 19 20  1  0
 20 21  1  0
 17  2  1  0
  8  3  1  0
 18  9  2  0
 21 10  1  0
 18 13  1  0
  4 22  1  0
  5 23  1  0
  6 24  1  0
  7 25  1  0
 12 26  1  0
 14 27  1  0
 15 28  1  0
 20 29  1  0
 20 30  1  0
M  END

     RDKit          3D

 34 37  0  0  0  0  0  0  0  0999 V2000
   -5.9885    0.0108    1.3515 C   0  0  0  0  0  0  0  0  0  0  0  0
   -4.6842    0.3415    1.8174 O   0  0  0  0  0  0  0  0  0  0  0  0
   -3.5313    0.3231    1.0190 C   0  0  0  0  0  0  0  0  0  0  0  0
   -3.5625   -0.0432   -0.3525 C   0  0  0  0  0  0  0  0  0  0  0  0
   -2.3820   -0.0500   -1.1142 C   0  0  0  0  0  0  0  0  0  0  0  0
   -1.1881    0.3198   -0.4949 C   0  0  0  0  0  0  0  0  0  0  0  0
   -1.1558    0.6721    0.8249 C   0  0  0  0  0  0  0  0  0  0  0  0
   -2.3062    0.6819    1.6102 C   0  0  0  0  0  0  0  0  0  0  0  0
    0.1204    1.0007    1.2309 O   0  0  0  0  0  0  0  0  0  0  0  0
    0.9993    1.0072    0.1056 C   0  0  1  0  0  0  0  0  0  0  0  0
    2.3270    0.3704    0.4381 C   0  0  0  0  0  0  0  0  0  0  0  0
    3.1086    0.8850    1.4839 C   0  0  0  0  0  0  0  0  0  0  0  0
    4.3920    0.3820    1.7181 C   0  0  0  0  0  0  0  0  0  0  0  0
    4.9132   -0.6268    0.8963 C   0  0  0  0  0  0  0  0  0  0  0  0
    6.1952   -1.1270    1.1123 O   0  0  0  0  0  0  0  0  0  0  0  0
    4.1402   -1.1377   -0.1513 C   0  0  0  0  0  0  0  0  0  0  0  0
    2.8466   -0.6537   -0.3718 C   0  0  0  0  0  0  0  0  0  0  0  0
    2.0707   -1.1926   -1.3967 O   0  0  0  0  0  0  0  0  0  0  0  0
    0.6519   -1.1088   -1.3555 C   0  0  0  0  0  0  0  0  0  0  0  0
    0.1956    0.3309   -1.0557 C   0  0  1  0  0  0  0  0  0  0  0  0
   -6.0104   -1.0402    0.9933 H   0  0  0  0  0  0  0  0  0  0  0  0
   -6.2880    0.7003    0.5344 H   0  0  0  0  0  0  0  0  0  0  0  0
   -6.7098    0.1162    2.1875 H   0  0  0  0  0  0  0  0  0  0  0  0
   -4.4882   -0.3290   -0.8321 H   0  0  0  0  0  0  0  0  0  0  0  0
   -2.3974   -0.3436   -2.1556 H   0  0  0  0  0  0  0  0  0  0  0  0
   -2.2556    0.9653    2.6537 H   0  0  0  0  0  0  0  0  0  0  0  0
    1.1884    2.0669   -0.1768 H   0  0  0  0  0  0  0  0  0  0  0  0
    2.7305    1.6876    2.1051 H   0  0  0  0  0  0  0  0  0  0  0  0
    4.9859    0.7869    2.5279 H   0  0  0  0  0  0  0  0  0  0  0  0
    6.7799   -0.7782    1.8629 H   0  0  0  0  0  0  0  0  0  0  0  0
    4.5376   -1.9219   -0.7832 H   0  0  0  0  0  0  0  0  0  0  0  0
    0.2856   -1.8061   -0.5689 H   0  0  0  0  0  0  0  0  0  0  0  0
    0.2368   -1.4407   -2.3306 H   0  0  0  0  0  0  0  0  0  0  0  0
    0.2428    0.9507   -1.9779 H   0  0  0  0  0  0  0  0  0  0  0  0
  1  2  1  0
  2  3  1  0
  3  4  2  0
  4  5  1  0
  5  6  2  0
  6  7  1  0
  7  8  2  0
  7  9  1  0
  9 10  1  0
 10 11  1  0
 11 12  2  0
 12 13  1  0
 13 14  2  0
 14 15  1  0
 14 16  1  0
 16 17  2  0
 17 18  1  0
 18 19  1  0
 19 20  1  0
  8  3  1  0
 20 10  1  0
 20  6  1  0
 17 11  1  0
  1 21  1  0
  1 22  1  0
  1 23  1  0
  4 24  1  0
  5 25  1  0
  8 26  1  0
 10 27  1  6
 12 28  1  0
 13 29  1  0
 15 30  1  0
 16 31  1  0
 19 32  1  0
 19 33  1  0
 20 34  1  6
M  END

     RDKit          3D

 17 17  0  0  0  0  0  0  0  0999 V2000
   -3.1335   -1.3258    0.5108 O   0  0  0  0  0  0  0  0  0  0  0  0
   -2.5253   -0.2349    0.3376 C   0  0  0  0  0  0  0  0  0  0  0  0
   -3.2552    0.9495    0.2751 O   0  0  0  0  0  0  0  0  0  0  0  0
   -1.0521   -0.2113    0.2019 C   0  0  0  0  0  0  0  0  0  0  0  0
   -0.3071   -1.4022    0.2637 C   0  0  0  0  0  0  0  0  0  0  0  0
    1.0839   -1.3742    0.1350 C   0  0  0  0  0  0  0  0  0  0  0  0
    1.7522   -0.1582   -0.0572 C   0  0  0  0  0  0  0  0  0  0  0  0
    3.1401   -0.1338   -0.1853 O   0  0  0  0  0  0  0  0  0  0  0  0
    1.0173    1.0372   -0.1205 C   0  0  0  0  0  0  0  0  0  0  0  0
    1.6526    2.2640   -0.3109 O   0  0  0  0  0  0  0  0  0  0  0  0
   -0.3763    1.0063    0.0088 C   0  0  0  0  0  0  0  0  0  0  0  0
   -4.2641    0.9444    0.3668 H   0  0  0  0  0  0  0  0  0  0  0  0
   -0.7985   -2.3558    0.4116 H   0  0  0  0  0  0  0  0  0  0  0  0
    1.6425   -2.3002    0.1850 H   0  0  0  0  0  0  0  0  0  0  0  0
    3.6920   -0.9827   -0.1431 H   0  0  0  0  0  0  0  0  0  0  0  0
    2.6579    2.3398   -0.4100 H   0  0  0  0  0  0  0  0  0  0  0  0
   -0.9264    1.9379   -0.0425 H   0  0  0  0  0  0  0  0  0  0  0  0
  1  2  2  0
  2  3  1  0
  2  4  1  0
  4  5  2  0
  5  6  1  0
  6  7  2  0
  7  8  1  0
  7  9  1  0
  9 10  1  0
  9 11  2  0
 11  4  1  0
  3 12  1  0
  5 13  1  0
  6 14  1  0
  8 15  1  0
 10 16  1  0
 11 17  1  0
M  END

     RDKit          3D

 32 34  0  0  0  0  0  0  0  0999 V2000
    4.0422    2.3447    1.0273 C   0  0  0  0  0  0  0  0  0  0  0  0
    3.4746    1.0927    0.6577 O   0  0  0  0  0  0  0  0  0  0  0  0
    2.0997    0.8483    0.5196 C   0  0  0  0  0  0  0  0  0  0  0  0
    1.1457    1.8594    0.7508 C   0  0  0  0  0  0  0  0  0  0  0  0
   -0.2203    1.5883    0.6549 C   0  0  0  0  0  0  0  0  0  0  0  0
   -0.6661    0.2949    0.3480 C   0  0  0  0  0  0  0  0  0  0  0  0
   -2.0475   -0.0032    0.2495 C   0  0  0  0  0  0  0  0  0  0  0  0
   -3.0080    0.9956    0.4502 O   0  0  0  0  0  0  0  0  0  0  0  0
   -3.9283    1.3876   -0.5588 C   0  0  0  0  0  0  0  0  0  0  0  0
   -2.3966   -1.3266   -0.0445 C   0  0  0  0  0  0  0  0  0  0  0  0
   -3.6099   -1.9749   -0.1476 C   0  0  0  0  0  0  0  0  0  0  0  0
   -3.2860   -3.2961   -0.4378 C   0  0  0  0  0  0  0  0  0  0  0  0
   -1.9761   -3.4486   -0.4949 O   0  0  0  0  0  0  0  0  0  0  0  0
   -1.4406   -2.2793   -0.2531 C   0  0  0  0  0  0  0  0  0  0  0  0
   -0.1169   -2.0052   -0.1871 N   0  0  0  0  0  0  0  0  0  0  0  0
    0.2945   -0.7362    0.1132 C   0  0  0  0  0  0  0  0  0  0  0  0
    1.6660   -0.4492    0.1732 C   0  0  0  0  0  0  0  0  0  0  0  0
    2.5741   -1.4860   -0.0857 O   0  0  0  0  0  0  0  0  0  0  0  0
    3.6359   -1.3857   -1.0312 C   0  0  0  0  0  0  0  0  0  0  0  0
    3.7893    3.1162    0.2690 H   0  0  0  0  0  0  0  0  0  0  0  0
    5.1471    2.2450    1.0757 H   0  0  0  0  0  0  0  0  0  0  0  0
    3.6733    2.6488    2.0289 H   0  0  0  0  0  0  0  0  0  0  0  0
    1.4519    2.8634    1.0152 H   0  0  0  0  0  0  0  0  0  0  0  0
   -0.9250    2.3944    0.8254 H   0  0  0  0  0  0  0  0  0  0  0  0
   -4.5007    2.2705   -0.2039 H   0  0  0  0  0  0  0  0  0  0  0  0
   -3.3782    1.6677   -1.4846 H   0  0  0  0  0  0  0  0  0  0  0  0
   -4.6494    0.5722   -0.7823 H   0  0  0  0  0  0  0  0  0  0  0  0
   -4.6031   -1.5757   -0.0019 H   0  0  0  0  0  0  0  0  0  0  0  0
   -3.9993   -4.0951   -0.5886 H   0  0  0  0  0  0  0  0  0  0  0  0
    4.4345   -0.6991   -0.6737 H   0  0  0  0  0  0  0  0  0  0  0  0
    3.2359   -1.0362   -2.0097 H   0  0  0  0  0  0  0  0  0  0  0  0
    4.0875   -2.3926   -1.1729 H   0  0  0  0  0  0  0  0  0  0  0  0
  1  2  1  0
  2  3  1  0
  3  4  2  0
  4  5  1  0
  5  6  2  0
  6  7  1  0
  7  8  1  0
  8  9  1  0
  7 10  2  0
 10 11  1  0
 11 12  2  0
 12 13  1  0
 13 14  1  0
 14 15  2  0
 15 16  1  0
 16 17  2  0
 17 18  1  0
 18 19  1  0
 17  3  1  0
 16  6  1  0
 14 10  1  0
  1 20  1  0
  1 21  1  0
  1 22  1  0
  4 23  1  0
  5 24  1  0
  9 25  1  0
  9 26  1  0
  9 27  1  0
 11 28  1  0
 12 29  1  0
 19 30  1  0
 19 31  1  0
 19 32  1  0
M  END

     RDKit          3D

 18 19  0  0  0  0  0  0  0  0999 V2000
   -3.5143   -1.4089   -1.3440 O   0  0  0  0  0  0  0  0  0  0  0  0
   -2.5411   -0.7677   -0.8684 C   0  0  0  0  0  0  0  0  0  0  0  0
   -2.7323    0.5279   -0.3760 C   0  0  0  0  0  0  0  0  0  0  0  0
   -1.6406    1.2206    0.1466 C   0  0  0  0  0  0  0  0  0  0  0  0
   -0.3845    0.6067    0.1665 C   0  0  0  0  0  0  0  0  0  0  0  0
    0.7444    1.2597    0.6808 C   0  0  0  0  0  0  0  0  0  0  0  0
    1.9838    0.6117    0.6830 C   0  0  0  0  0  0  0  0  0  0  0  0
    2.1030   -0.6898    0.1726 C   0  0  0  0  0  0  0  0  0  0  0  0
    3.3346   -1.3407    0.1719 O   0  0  0  0  0  0  0  0  0  0  0  0
    0.9771   -1.3438   -0.3415 C   0  0  0  0  0  0  0  0  0  0  0  0
   -0.2669   -0.7036   -0.3480 C   0  0  0  0  0  0  0  0  0  0  0  0
   -1.3349   -1.3290   -0.8376 O   0  0  0  0  0  0  0  0  0  0  0  0
   -3.7113    0.9906   -0.3980 H   0  0  0  0  0  0  0  0  0  0  0  0
   -1.7761    2.2245    0.5308 H   0  0  0  0  0  0  0  0  0  0  0  0
    0.6684    2.2646    1.0784 H   0  0  0  0  0  0  0  0  0  0  0  0
    2.8517    1.1215    1.0816 H   0  0  0  0  0  0  0  0  0  0  0  0
    4.1689   -0.8958    0.5365 H   0  0  0  0  0  0  0  0  0  0  0  0
    1.0701   -2.3484   -0.7353 H   0  0  0  0  0  0  0  0  0  0  0  0
  1  2  2  0
  2  3  1  0
  3  4  2  0
  4  5  1  0
  5  6  2  0
  6  7  1  0
  7  8  2  0
  8  9  1  0
  8 10  1  0
 10 11  2  0
 11 12  1  0
 12  2  1  0
 11  5  1  0
  3 13  1  0
  4 14  1  0
  6 15  1  0
  7 16  1  0
  9 17  1  0
 10 18  1  0
M  END

     RDKit          3D

 39 41  0  0  0  0  0  0  0  0999 V2000
   -2.7958   -0.2703    3.7973 C   0  0  0  0  0  0  0  0  0  0  0  0
   -3.2033   -0.0991    2.4433 O   0  0  0  0  0  0  0  0  0  0  0  0
   -2.3241   -0.0185    1.3518 C   0  0  0  0  0  0  0  0  0  0  0  0
   -0.9298   -0.0830    1.5117 C   0  0  0  0  0  0  0  0  0  0  0  0
   -0.0854   -0.0353    0.4025 C   0  0  0  0  0  0  0  0  0  0  0  0
    1.2278   -0.1257    0.5862 O   0  0  0  0  0  0  0  0  0  0  0  0
    2.1154   -0.0932   -0.4060 C   0  0  0  0  0  0  0  0  0  0  0  0
    3.5627   -0.2046   -0.0659 C   0  0  0  0  0  0  0  0  0  0  0  0
    4.5825    0.1515   -0.9773 C   0  0  0  0  0  0  0  0  0  0  0  0
    5.9283    0.0351   -0.6148 C   0  0  0  0  0  0  0  0  0  0  0  0
    6.2792   -0.4209    0.6577 C   0  0  0  0  0  0  0  0  0  0  0  0
    5.2830   -0.7572    1.5763 C   0  0  0  0  0  0  0  0  0  0  0  0
    3.9353   -0.6513    1.2197 C   0  0  0  0  0  0  0  0  0  0  0  0
    1.6565    0.0312   -1.7291 C   0  0  0  0  0  0  0  0  0  0  0  0
    0.2876    0.1424   -1.9743 C   0  0  0  0  0  0  0  0  0  0  0  0
   -0.1089    0.2554   -3.1661 O   0  0  0  0  0  0  0  0  0  0  0  0
   -0.6208    0.1128   -0.8951 C   0  0  0  0  0  0  0  0  0  0  0  0
   -2.0212    0.2404   -1.0567 C   0  0  0  0  0  0  0  0  0  0  0  0
   -2.5511    0.5137   -2.3220 O   0  0  0  0  0  0  0  0  0  0  0  0
   -3.2505    1.7216   -2.6057 C   0  0  0  0  0  0  0  0  0  0  0  0
   -2.8701    0.1139    0.0674 C   0  0  0  0  0  0  0  0  0  0  0  0
   -4.2649    0.1039   -0.0590 O   0  0  0  0  0  0  0  0  0  0  0  0
   -4.9553   -0.8181   -0.8973 C   0  0  0  0  0  0  0  0  0  0  0  0
   -2.1613    0.5828    4.1184 H   0  0  0  0  0  0  0  0  0  0  0  0
   -2.2420   -1.2258    3.9105 H   0  0  0  0  0  0  0  0  0  0  0  0
   -3.6952   -0.3041    4.4442 H   0  0  0  0  0  0  0  0  0  0  0  0
   -0.4872   -0.1876    2.4937 H   0  0  0  0  0  0  0  0  0  0  0  0
    4.3577    0.5401   -1.9616 H   0  0  0  0  0  0  0  0  0  0  0  0
    6.7011    0.3059   -1.3223 H   0  0  0  0  0  0  0  0  0  0  0  0
    7.3229   -0.5016    0.9354 H   0  0  0  0  0  0  0  0  0  0  0  0
    5.5556   -1.0979    2.5675 H   0  0  0  0  0  0  0  0  0  0  0  0
    3.1856   -0.9204    1.9550 H   0  0  0  0  0  0  0  0  0  0  0  0
    2.3338    0.0202   -2.5711 H   0  0  0  0  0  0  0  0  0  0  0  0
   -2.5958    2.5940   -2.3971 H   0  0  0  0  0  0  0  0  0  0  0  0
   -4.1717    1.8030   -1.9947 H   0  0  0  0  0  0  0  0  0  0  0  0
   -3.5337    1.7368   -3.6789 H   0  0  0  0  0  0  0  0  0  0  0  0
   -6.0460   -0.7068   -0.7363 H   0  0  0  0  0  0  0  0  0  0  0  0
   -4.7433   -0.6267   -1.9651 H   0  0  0  0  0  0  0  0  0  0  0  0
   -4.6577   -1.8570   -0.6423 H   0  0  0  0  0  0  0  0  0  0  0  0
  1  2  1  0
  2  3  1  0
  3  4  2  0
  4  5  1  0
  5  6  1  0
  6  7  1  0
  7  8  1  0
  8  9  2  0
  9 10  1  0
 10 11  2  0
 11 12  1  0
 12 13  2  0
  7 14  2  0
 14 15  1  0
 15 16  2  0
 15 17  1  0
 17 18  1  0
 18 19  1  0
 19 20  1  0
 18 21  2  0
 21 22  1  0
 22 23  1  0
 21  3  1  0
 17  5  2  0
 13  8  1  0
  1 24  1  0
  1 25  1  0
  1 26  1  0
  4 27  1  0
  9 28  1  0
 10 29  1  0
 11 30  1  0
 12 31  1  0
 13 32  1  0
 14 33  1  0
 20 34  1  0
 20 35  1  0
 20 36  1  0
 23 37  1  0
 23 38  1  0
 23 39  1  0
M  END

     RDKit          3D

 21 21  0  0  0  0  0  0  0  0999 V2000
   -4.2603   -0.8003   -0.0293 O   0  0  0  0  0  0  0  0  0  0  0  0
   -3.8073    0.3639    0.1432 C   0  0  0  0  0  0  0  0  0  0  0  0
   -4.6874    1.4304    0.2939 O   0  0  0  0  0  0  0  0  0  0  0  0
   -2.3573    0.6156    0.1902 C   0  0  0  0  0  0  0  0  0  0  0  0
   -1.4552   -0.3632    0.0289 C   0  0  0  0  0  0  0  0  0  0  0  0
    0.0125   -0.1451    0.0583 C   0  0  0  0  0  0  0  0  0  0  0  0
    0.6006    0.9686    0.6895 C   0  0  0  0  0  0  0  0  0  0  0  0
    1.9894    1.1236    0.6999 C   0  0  0  0  0  0  0  0  0  0  0  0
    2.8134    0.1719    0.0929 C   0  0  0  0  0  0  0  0  0  0  0  0
    4.1954    0.3559    0.1188 O   0  0  0  0  0  0  0  0  0  0  0  0
    2.2410   -0.9507   -0.5266 C   0  0  0  0  0  0  0  0  0  0  0  0
    3.0567   -1.9072   -1.1293 O   0  0  0  0  0  0  0  0  0  0  0  0
    0.8472   -1.1062   -0.5363 C   0  0  0  0  0  0  0  0  0  0  0  0
   -5.6896    1.2852    0.2663 H   0  0  0  0  0  0  0  0  0  0  0  0
   -2.0419    1.6391    0.3356 H   0  0  0  0  0  0  0  0  0  0  0  0
   -1.8045   -1.3688   -0.1763 H   0  0  0  0  0  0  0  0  0  0  0  0
    0.0007    1.7107    1.1972 H   0  0  0  0  0  0  0  0  0  0  0  0
    2.4282    1.9844    1.1887 H   0  0  0  0  0  0  0  0  0  0  0  0
    4.8344   -0.3056   -0.3058 H   0  0  0  0  0  0  0  0  0  0  0  0
    2.6689   -2.7263   -1.5828 H   0  0  0  0  0  0  0  0  0  0  0  0
    0.4150   -1.9758   -1.0171 H   0  0  0  0  0  0  0  0  0  0  0  0
  1  2  2  0
  2  3  1  0
  2  4  1  0
  4  5  2  0
  5  6  1  0
  6  7  2  0
  7  8  1  0
  8  9  2  0
  9 10  1  0
  9 11  1  0
 11 12  1  0
 11 13  2  0
 13  6  1  0
  3 14  1  0
  4 15  1  0
  5 16  1  0
  7 17  1  0
  8 18  1  0
 10 19  1  0
 12 20  1  0
 13 21  1  0
M  END

     RDKit          3D

 22 23  0  0  0  0  0  0  0  0999 V2000
    3.6025   -0.0181    0.2353 C   0  0  0  0  0  0  0  0  0  0  0  0
    2.1206   -0.1859    0.0381 C   0  0  0  0  0  0  0  0  0  0  0  0
    1.6347   -1.3390   -0.4456 C   0  0  0  0  0  0  0  0  0  0  0  0
    0.1874   -1.5519   -0.6230 C   0  0  0  0  0  0  0  0  0  0  0  0
   -0.2108   -2.6523   -1.0902 O   0  0  0  0  0  0  0  0  0  0  0  0
   -0.7753   -0.4815   -0.2521 C   0  0  0  0  0  0  0  0  0  0  0  0
   -2.1715   -0.6387   -0.4118 C   0  0  0  0  0  0  0  0  0  0  0  0
   -2.7015   -1.8190   -0.9331 O   0  0  0  0  0  0  0  0  0  0  0  0
   -3.0371    0.4004   -0.0437 C   0  0  0  0  0  0  0  0  0  0  0  0
   -2.5312    1.5893    0.4796 C   0  0  0  0  0  0  0  0  0  0  0  0
   -1.1561    1.7548    0.6411 C   0  0  0  0  0  0  0  0  0  0  0  0
   -0.2694    0.7267    0.2782 C   0  0  0  0  0  0  0  0  0  0  0  0
    1.1943    0.8966    0.4472 C   0  0  0  0  0  0  0  0  0  0  0  0
    1.6556    1.9613    0.9421 O   0  0  0  0  0  0  0  0  0  0  0  0
    3.8560   -0.2037    1.2999 H   0  0  0  0  0  0  0  0  0  0  0  0
    4.1813   -0.7220   -0.4008 H   0  0  0  0  0  0  0  0  0  0  0  0
    3.9112    1.0132   -0.0366 H   0  0  0  0  0  0  0  0  0  0  0  0
    2.3100   -2.1422   -0.7175 H   0  0  0  0  0  0  0  0  0  0  0  0
   -3.6995   -1.9473   -1.0538 H   0  0  0  0  0  0  0  0  0  0  0  0
   -4.1070    0.2861   -0.1636 H   0  0  0  0  0  0  0  0  0  0  0  0
   -3.2077    2.3861    0.7612 H   0  0  0  0  0  0  0  0  0  0  0  0
   -0.7866    2.6872    1.0491 H   0  0  0  0  0  0  0  0  0  0  0  0
  1  2  1  0
  2  3  2  0
  3  4  1  0
  4  5  2  0
  4  6  1  0
  6  7  2  0
  7  8  1  0
  7  9  1  0
  9 10  2  0
 10 11  1  0
 11 12  2  0
 12 13  1  0
 13 14  2  0
 13  2  1  0
 12  6  1  0
  1 15  1  0
  1 16  1  0
  1 17  1  0
  3 18  1  0
  8 19  1  0
  9 20  1  0
 10 21  1  0
 11 22  1  0
M  END

     RDKit          3D

 23 24  0  0  0  0  0  0  0  0999 V2000
    3.5472   -1.2985   -0.0508 C   0  0  0  0  0  0  0  0  0  0  0  0
    2.9195   -0.0214    0.0008 O   0  0  0  0  0  0  0  0  0  0  0  0
    1.5308    0.1820    0.0394 C   0  0  0  0  0  0  0  0  0  0  0  0
    0.6176   -0.8893    0.0302 C   0  0  0  0  0  0  0  0  0  0  0  0
   -0.7599   -0.6416    0.0698 C   0  0  0  0  0  0  0  0  0  0  0  0
   -1.6880   -1.6884    0.0617 C   0  0  0  0  0  0  0  0  0  0  0  0
   -3.0503   -1.3971    0.1022 C   0  0  0  0  0  0  0  0  0  0  0  0
   -3.4546   -0.0598    0.1502 C   0  0  0  0  0  0  0  0  0  0  0  0
   -4.6801    0.2254    0.1874 O   0  0  0  0  0  0  0  0  0  0  0  0
   -2.5510    0.9165    0.1570 O   0  0  0  0  0  0  0  0  0  0  0  0
   -1.2396    0.6849    0.1193 C   0  0  0  0  0  0  0  0  0  0  0  0
   -0.3310    1.7560    0.1287 C   0  0  0  0  0  0  0  0  0  0  0  0
   -0.7867    3.0745    0.1774 O   0  0  0  0  0  0  0  0  0  0  0  0
    1.0521    1.5006    0.0887 C   0  0  0  0  0  0  0  0  0  0  0  0
    1.9702    2.5518    0.0972 O   0  0  0  0  0  0  0  0  0  0  0  0
    4.6476   -1.1608   -0.0728 H   0  0  0  0  0  0  0  0  0  0  0  0
    3.2813   -1.8914    0.8498 H   0  0  0  0  0  0  0  0  0  0  0  0
    3.2383   -1.8391   -0.9704 H   0  0  0  0  0  0  0  0  0  0  0  0
    0.9708   -1.9117   -0.0076 H   0  0  0  0  0  0  0  0  0  0  0  0
   -1.3628   -2.7212    0.0243 H   0  0  0  0  0  0  0  0  0  0  0  0
   -3.7797   -2.1977    0.0964 H   0  0  0  0  0  0  0  0  0  0  0  0
   -1.7728    3.3045    0.2073 H   0  0  0  0  0  0  0  0  0  0  0  0
    1.6811    3.5219    0.1320 H   0  0  0  0  0  0  0  0  0  0  0  0
  1  2  1  0
  2  3  1  0
  3  4  2  0
  4  5  1  0
  5  6  1  0
  6  7  2  0
  7  8  1  0
  8  9  2  0
  8 10  1  0
 10 11  1  0
 11 12  1  0
 12 13  1  0
 12 14  2  0
 14 15  1  0
 14  3  1  0
 11  5  2  0
  1 16  1  0
  1 17  1  0
  1 18  1  0
  4 19  1  0
  6 20  1  0
  7 21  1  0
 13 22  1  0
 15 23  1  0
M  END

     RDKit          3D

 35 37  0  0  0  0  0  0  0  0999 V2000
   -4.4950   -1.0184   -3.1894 O   0  0  0  0  0  0  0  0  0  0  0  0
   -3.8299   -0.6767   -2.0153 C   0  0  0  0  0  0  0  0  0  0  0  0
   -4.5312   -0.5404   -0.8117 C   0  0  0  0  0  0  0  0  0  0  0  0
   -3.8639   -0.1993    0.3726 C   0  0  0  0  0  0  0  0  0  0  0  0
   -4.6283   -0.0407    1.5348 O   0  0  0  0  0  0  0  0  0  0  0  0
   -2.4579   -0.0263    0.3602 C   0  0  0  0  0  0  0  0  0  0  0  0
   -1.7632   -0.1388   -0.8685 C   0  0  0  0  0  0  0  0  0  0  0  0
   -2.4516   -0.4680   -2.0431 C   0  0  0  0  0  0  0  0  0  0  0  0
   -0.3774    0.0547   -0.9258 O   0  0  0  0  0  0  0  0  0  0  0  0
    0.3703    0.5698    0.1765 C   0  0  2  0  0  0  0  0  0  0  0  0
    1.8462    0.3074   -0.0602 C   0  0  0  0  0  0  0  0  0  0  0  0
    2.4869   -0.8727    0.3782 C   0  0  0  0  0  0  0  0  0  0  0  0
    3.8289   -1.1053    0.0701 C   0  0  0  0  0  0  0  0  0  0  0  0
    4.5487   -0.1852   -0.7069 C   0  0  0  0  0  0  0  0  0  0  0  0
    5.8853   -0.4282   -1.0177 O   0  0  0  0  0  0  0  0  0  0  0  0
    3.9145    0.9810   -1.1687 C   0  0  0  0  0  0  0  0  0  0  0  0
    4.5988    1.9101   -1.9525 O   0  0  0  0  0  0  0  0  0  0  0  0
    2.5723    1.2171   -0.8497 C   0  0  0  0  0  0  0  0  0  0  0  0
   -0.1892   -0.0147    1.4940 C   0  0  1  0  0  0  0  0  0  0  0  0
    0.5250    0.4526    2.6131 O   0  0  0  0  0  0  0  0  0  0  0  0
   -1.6897    0.3158    1.6229 C   0  0  0  0  0  0  0  0  0  0  0  0
   -5.4867   -1.2154   -3.1940 H   0  0  0  0  0  0  0  0  0  0  0  0
   -5.6040   -0.6977   -0.7968 H   0  0  0  0  0  0  0  0  0  0  0  0
   -4.2430    0.2582    2.4199 H   0  0  0  0  0  0  0  0  0  0  0  0
   -1.9107   -0.5716   -2.9793 H   0  0  0  0  0  0  0  0  0  0  0  0
    0.2134    1.6739    0.2109 H   0  0  0  0  0  0  0  0  0  0  0  0
    1.9670   -1.6229    0.9604 H   0  0  0  0  0  0  0  0  0  0  0  0
    4.3045   -2.0110    0.4274 H   0  0  0  0  0  0  0  0  0  0  0  0
    6.3639   -1.2578   -0.6852 H   0  0  0  0  0  0  0  0  0  0  0  0
    5.5715    1.7896   -2.2120 H   0  0  0  0  0  0  0  0  0  0  0  0
    2.0875    2.1099   -1.2252 H   0  0  0  0  0  0  0  0  0  0  0  0
   -0.1150   -1.1223    1.4707 H   0  0  0  0  0  0  0  0  0  0  0  0
    0.4591    1.4448    2.6188 H   0  0  0  0  0  0  0  0  0  0  0  0
   -1.8288    1.3959    1.8374 H   0  0  0  0  0  0  0  0  0  0  0  0
   -2.0784   -0.2672    2.4843 H   0  0  0  0  0  0  0  0  0  0  0  0
  1  2  1  0
  2  3  2  0
  3  4  1  0
  4  5  1  0
  4  6  2  0
  6  7  1  0
  7  8  2  0
  7  9  1  0
  9 10  1  0
 10 11  1  0
 11 12  2  0
 12 13  1  0
 13 14  2  0
 14 15  1  0
 14 16  1  0
 16 17  1  0
 16 18  2  0
 10 19  1  0
 19 20  1  0
 19 21  1  0
  8  2  1  0
 18 11  1  0
 21  6  1  0
  1 22  1  0
  3 23  1  0
  5 24  1  0
  8 25  1  0
 10 26  1  1
 12 27  1  0
 13 28  1  0
 15 29  1  0
 17 30  1  0
 18 31  1  0
 19 32  1  6
 20 33  1  0
 21 34  1  0
 21 35  1  0
M  END

     RDKit          3D

 32 34  0  0  0  0  0  0  0  0999 V2000
   -1.8538   -1.3744    2.5085 O   0  0  0  0  0  0  0  0  0  0  0  0
   -1.3719   -0.8505    1.4676 C   0  0  0  0  0  0  0  0  0  0  0  0
    0.1059   -0.9462    1.2161 C   0  0  0  0  0  0  0  0  0  0  0  0
    0.5953    0.2904    0.4443 C   0  0  1  0  0  0  0  0  0  0  0  0
    2.0296    0.1198    0.0073 C   0  0  0  0  0  0  0  0  0  0  0  0
    2.3517   -0.7341   -1.0631 C   0  0  0  0  0  0  0  0  0  0  0  0
    3.6832   -0.9054   -1.4531 C   0  0  0  0  0  0  0  0  0  0  0  0
    4.7074   -0.2319   -0.7787 C   0  0  0  0  0  0  0  0  0  0  0  0
    6.0293   -0.4111   -1.1794 O   0  0  0  0  0  0  0  0  0  0  0  0
    4.3945    0.6141    0.2937 C   0  0  0  0  0  0  0  0  0  0  0  0
    3.0640    0.7845    0.6890 C   0  0  0  0  0  0  0  0  0  0  0  0
   -0.2331    0.5331   -0.6949 O   0  0  0  0  0  0  0  0  0  0  0  0
   -1.6278    0.4405   -0.6310 C   0  0  0  0  0  0  0  0  0  0  0  0
   -2.4000    0.9975   -1.6538 C   0  0  0  0  0  0  0  0  0  0  0  0
   -3.7940    0.9335   -1.5985 C   0  0  0  0  0  0  0  0  0  0  0  0
   -4.5495    1.4987   -2.6240 O   0  0  0  0  0  0  0  0  0  0  0  0
   -4.4192    0.3039   -0.5150 C   0  0  0  0  0  0  0  0  0  0  0  0
   -3.6553   -0.2731    0.5110 C   0  0  0  0  0  0  0  0  0  0  0  0
   -4.2966   -0.9067    1.5758 O   0  0  0  0  0  0  0  0  0  0  0  0
   -2.2464   -0.2142    0.4514 C   0  0  0  0  0  0  0  0  0  0  0  0
    0.2982   -1.8690    0.6277 H   0  0  0  0  0  0  0  0  0  0  0  0
    0.6525   -1.0219    2.1816 H   0  0  0  0  0  0  0  0  0  0  0  0
    0.5108    1.1732    1.1175 H   0  0  0  0  0  0  0  0  0  0  0  0
    1.5726   -1.2681   -1.5926 H   0  0  0  0  0  0  0  0  0  0  0  0
    3.9192   -1.5632   -2.2795 H   0  0  0  0  0  0  0  0  0  0  0  0
    6.7945    0.0696   -0.7182 H   0  0  0  0  0  0  0  0  0  0  0  0
    5.1814    1.1371    0.8226 H   0  0  0  0  0  0  0  0  0  0  0  0
    2.8415    1.4345    1.5257 H   0  0  0  0  0  0  0  0  0  0  0  0
   -1.9146    1.4891   -2.4875 H   0  0  0  0  0  0  0  0  0  0  0  0
   -5.5623    1.4552   -2.6230 H   0  0  0  0  0  0  0  0  0  0  0  0
   -5.5001    0.2563   -0.4744 H   0  0  0  0  0  0  0  0  0  0  0  0
   -5.3070   -0.9614    1.6322 H   0  0  0  0  0  0  0  0  0  0  0  0
  1  2  2  0
  2  3  1  0
  3  4  1  0
  4  5  1  0
  5  6  2  0
  6  7  1  0
  7  8  2  0
  8  9  1  0
  8 10  1  0
 10 11  2  0
  4 12  1  0
 12 13  1  0
 13 14  2  0
 14 15  1  0
 15 16  1  0
 15 17  2  0
 17 18  1  0
 18 19  1  0
 18 20  2  0
 20  2  1  0
 11  5  1  0
 20 13  1  0
  3 21  1  0
  3 22  1  0
  4 23  1  1
  6 24  1  0
  7 25  1  0
  9 26  1  0
 10 27  1  0
 11 28  1  0
 14 29  1  0
 16 30  1  0
 17 31  1  0
 19 32  1  0
M  END

     RDKit          3D

 28 30  0  0  0  0  0  0  0  0999 V2000
   -3.1962    2.0865    0.3241 C   0  0  0  0  0  0  0  0  0  0  0  0
   -2.1923    1.7509   -0.6269 O   0  0  0  0  0  0  0  0  0  0  0  0
   -1.3956    0.6076   -0.5019 C   0  0  0  0  0  0  0  0  0  0  0  0
   -1.9366   -0.6801   -0.5478 C   0  0  0  0  0  0  0  0  0  0  0  0
   -3.2168   -1.1463   -0.7589 C   0  0  0  0  0  0  0  0  0  0  0  0
   -3.1009   -2.5330   -0.7202 C   0  0  0  0  0  0  0  0  0  0  0  0
   -1.8452   -2.8858   -0.5145 O   0  0  0  0  0  0  0  0  0  0  0  0
   -1.1452   -1.7846   -0.4191 C   0  0  0  0  0  0  0  0  0  0  0  0
    0.1947   -1.7019   -0.2426 N   0  0  0  0  0  0  0  0  0  0  0  0
    0.7927   -0.4728   -0.2001 C   0  0  0  0  0  0  0  0  0  0  0  0
    2.1826   -0.3815   -0.0241 C   0  0  0  0  0  0  0  0  0  0  0  0
    2.9244   -1.5668    0.1078 O   0  0  0  0  0  0  0  0  0  0  0  0
    4.3355   -1.6189    0.2910 C   0  0  0  0  0  0  0  0  0  0  0  0
    2.7901    0.8883    0.0147 C   0  0  0  0  0  0  0  0  0  0  0  0
    2.0226    2.0475   -0.1197 C   0  0  0  0  0  0  0  0  0  0  0  0
    0.6404    1.9663   -0.2942 C   0  0  0  0  0  0  0  0  0  0  0  0
    0.0067    0.7150   -0.3386 C   0  0  0  0  0  0  0  0  0  0  0  0
   -2.7410    2.1865    1.3321 H   0  0  0  0  0  0  0  0  0  0  0  0
   -3.6537    3.0565    0.0410 H   0  0  0  0  0  0  0  0  0  0  0  0
   -3.9909    1.3162    0.3540 H   0  0  0  0  0  0  0  0  0  0  0  0
   -4.1156   -0.5758   -0.9453 H   0  0  0  0  0  0  0  0  0  0  0  0
   -3.9145   -3.2345   -0.8469 H   0  0  0  0  0  0  0  0  0  0  0  0
    4.6182   -1.0976    1.2299 H   0  0  0  0  0  0  0  0  0  0  0  0
    4.6525   -2.6793    0.3644 H   0  0  0  0  0  0  0  0  0  0  0  0
    4.8506   -1.1532   -0.5757 H   0  0  0  0  0  0  0  0  0  0  0  0
    3.8581    0.9912    0.1489 H   0  0  0  0  0  0  0  0  0  0  0  0
    2.5035    3.0168   -0.0869 H   0  0  0  0  0  0  0  0  0  0  0  0
    0.0718    2.8828   -0.3924 H   0  0  0  0  0  0  0  0  0  0  0  0
  1  2  1  0
  2  3  1  0
  3  4  2  0
  4  5  1  0
  5  6  2  0
  6  7  1  0
  7  8  1  0
  8  9  2  0
  9 10  1  0
 10 11  2  0
 11 12  1  0
 12 13  1  0
 11 14  1  0
 14 15  2  0
 15 16  1  0
 16 17  2  0
 17  3  1  0
  8  4  1  0
 17 10  1  0
  1 18  1  0
  1 19  1  0
  1 20  1  0
  5 21  1  0
  6 22  1  0
 13 23  1  0
 13 24  1  0
 13 25  1  0
 14 26  1  0
 15 27  1  0
 16 28  1  0
M  END

     RDKit          3D

 37 39  0  0  0  0  0  0  0  0999 V2000
   -4.1106    1.4055   -1.1819 C   0  0  0  0  0  0  0  0  0  0  0  0
   -2.7955    0.9708   -0.6780 N   0  0  0  0  0  0  0  0  0  0  0  0
   -2.7999    0.7415    0.7701 C   0  0  1  0  0  0  0  0  0  0  0  0
   -3.4183   -0.6496    0.9864 C   0  0  0  0  0  0  0  0  0  0  0  0
   -3.1537   -1.3825   -0.3276 C   0  0  0  0  0  0  0  0  0  0  0  0
   -2.4108   -0.3476   -1.1903 C   0  0  2  0  0  0  0  0  0  0  0  0
   -0.8804   -0.4654   -1.0011 C   0  0  0  0  0  0  0  0  0  0  0  0
   -0.4674   -0.2960    0.4907 C   0  0  0  0  0  0  0  0  0  0  0  0
    0.9108    0.0656    0.5837 O   0  0  0  0  0  0  0  0  0  0  0  0
    1.9621   -0.8277    0.3385 C   0  0  0  0  0  0  0  0  0  0  0  0
    1.7177   -2.0361    0.0729 O   0  0  0  0  0  0  0  0  0  0  0  0
    3.3604   -0.3486    0.3903 C   0  0  0  0  0  0  0  0  0  0  0  0
    3.6362    1.0159    0.5979 C   0  0  0  0  0  0  0  0  0  0  0  0
    4.9577    1.4731    0.6364 C   0  0  0  0  0  0  0  0  0  0  0  0
    6.0149    0.5743    0.4700 C   0  0  0  0  0  0  0  0  0  0  0  0
    5.7532   -0.7831    0.2652 C   0  0  0  0  0  0  0  0  0  0  0  0
    4.4338   -1.2449    0.2228 C   0  0  0  0  0  0  0  0  0  0  0  0
   -1.3223    0.7706    1.2264 C   0  0  0  0  0  0  0  0  0  0  0  0
   -4.3952    2.3716   -0.7095 H   0  0  0  0  0  0  0  0  0  0  0  0
   -4.0535    1.5776   -2.2787 H   0  0  0  0  0  0  0  0  0  0  0  0
   -4.9063    0.6574   -0.9769 H   0  0  0  0  0  0  0  0  0  0  0  0
   -3.3683    1.5270    1.3169 H   0  0  0  0  0  0  0  0  0  0  0  0
   -2.9713   -1.1835    1.8536 H   0  0  0  0  0  0  0  0  0  0  0  0
   -4.5134   -0.5552    1.1559 H   0  0  0  0  0  0  0  0  0  0  0  0
   -2.5587   -2.3081   -0.1680 H   0  0  0  0  0  0  0  0  0  0  0  0
   -4.1149   -1.6640   -0.8114 H   0  0  0  0  0  0  0  0  0  0  0  0
   -2.6597   -0.4659   -2.2692 H   0  0  0  0  0  0  0  0  0  0  0  0
   -0.5297   -1.4491   -1.3829 H   0  0  0  0  0  0  0  0  0  0  0  0
   -0.3881    0.3265   -1.6104 H   0  0  0  0  0  0  0  0  0  0  0  0
   -0.6193   -1.2665    1.0150 H   0  0  0  0  0  0  0  0  0  0  0  0
    2.8324    1.7302    0.7241 H   0  0  0  0  0  0  0  0  0  0  0  0
    5.1620    2.5266    0.7908 H   0  0  0  0  0  0  0  0  0  0  0  0
    7.0368    0.9289    0.5019 H   0  0  0  0  0  0  0  0  0  0  0  0
    6.5743   -1.4775    0.1401 H   0  0  0  0  0  0  0  0  0  0  0  0
    4.2540   -2.3007    0.0592 H   0  0  0  0  0  0  0  0  0  0  0  0
   -1.2589    0.6076    2.3244 H   0  0  0  0  0  0  0  0  0  0  0  0
   -0.9098    1.7814    1.0126 H   0  0  0  0  0  0  0  0  0  0  0  0
  1  2  1  0
  2  3  1  0
  3  4  1  0
  4  5  1  0
  5  6  1  0
  6  7  1  0
  7  8  1  0
  8  9  1  0
  9 10  1  0
 10 11  2  0
 10 12  1  0
 12 13  2  0
 13 14  1  0
 14 15  2  0
 15 16  1  0
 16 17  2  0
  8 18  1  0
  6  2  1  0
 17 12  1  0
 18  3  1  0
  1 19  1  0
  1 20  1  0
  1 21  1  0
  3 22  1  1
  4 23  1  0
  4 24  1  0
  5 25  1  0
  5 26  1  0
  6 27  1  6
  7 28  1  0
  7 29  1  0
  8 30  1  0
 13 31  1  0
 14 32  1  0
 15 33  1  0
 16 34  1  0
 17 35  1  0
 18 36  1  0
 18 37  1  0
M  END

     RDKit          3D

 38 42  0  0  0  0  0  0  0  0999 V2000
    3.7057   -1.0866   -0.2867 C   0  0  0  0  0  0  0  0  0  0  0  0
    2.6868   -0.0167   -0.2662 N   0  0  0  0  0  0  0  0  0  0  0  0
    3.2048    1.1308    0.5162 C   0  0  0  0  0  0  0  0  0  0  0  0
    2.2197    2.3264    0.5499 C   0  0  0  0  0  0  0  0  0  0  0  0
    0.8097    1.9854    0.1415 C   0  0  0  0  0  0  0  0  0  0  0  0
   -0.0967    3.0292   -0.1346 C   0  0  0  0  0  0  0  0  0  0  0  0
   -1.4148    2.6987   -0.4192 C   0  0  0  0  0  0  0  0  0  0  0  0
   -1.8557    1.4157   -0.3987 C   0  0  0  0  0  0  0  0  0  0  0  0
   -1.0090    0.3448   -0.0756 C   0  0  0  0  0  0  0  0  0  0  0  0
    0.3695    0.6370    0.1164 C   0  0  0  0  0  0  0  0  0  0  0  0
    1.3898   -0.4733    0.2986 C   0  0  1  0  0  0  0  0  0  0  0  0
    0.8929   -1.7740   -0.3851 C   0  0  0  0  0  0  0  0  0  0  0  0
   -0.5367   -2.0957   -0.0534 C   0  0  0  0  0  0  0  0  0  0  0  0
   -0.9397   -3.4317    0.0866 C   0  0  0  0  0  0  0  0  0  0  0  0
   -2.2735   -3.7385    0.3771 C   0  0  0  0  0  0  0  0  0  0  0  0
   -3.2117   -2.7100    0.5257 C   0  0  0  0  0  0  0  0  0  0  0  0
   -2.8220   -1.3759    0.3782 C   0  0  0  0  0  0  0  0  0  0  0  0
   -1.4835   -1.0571    0.0627 C   0  0  0  0  0  0  0  0  0  0  0  0
   -3.1956    1.3990   -0.7399 O   0  0  0  0  0  0  0  0  0  0  0  0
   -3.6215    2.7413   -0.9798 C   0  0  0  0  0  0  0  0  0  0  0  0
   -2.4535    3.5443   -0.7464 O   0  0  0  0  0  0  0  0  0  0  0  0
    3.7506   -1.6227    0.6803 H   0  0  0  0  0  0  0  0  0  0  0  0
    3.5002   -1.8025   -1.1060 H   0  0  0  0  0  0  0  0  0  0  0  0
    4.7151   -0.6792   -0.5057 H   0  0  0  0  0  0  0  0  0  0  0  0
    3.4665    0.8155    1.5565 H   0  0  0  0  0  0  0  0  0  0  0  0
    4.1591    1.4925    0.0446 H   0  0  0  0  0  0  0  0  0  0  0  0
    2.1762    2.7151    1.5962 H   0  0  0  0  0  0  0  0  0  0  0  0
    2.6051    3.1745   -0.0666 H   0  0  0  0  0  0  0  0  0  0  0  0
    0.2192    4.0634   -0.1468 H   0  0  0  0  0  0  0  0  0  0  0  0
    1.4996   -0.6796    1.3950 H   0  0  0  0  0  0  0  0  0  0  0  0
    0.9709   -1.6733   -1.4950 H   0  0  0  0  0  0  0  0  0  0  0  0
    1.5326   -2.6198   -0.0549 H   0  0  0  0  0  0  0  0  0  0  0  0
   -0.2180   -4.2309    0.0185 H   0  0  0  0  0  0  0  0  0  0  0  0
   -2.5712   -4.7731    0.5228 H   0  0  0  0  0  0  0  0  0  0  0  0
   -4.2369   -2.9418    0.7659 H   0  0  0  0  0  0  0  0  0  0  0  0
   -3.5586   -0.5996    0.5348 H   0  0  0  0  0  0  0  0  0  0  0  0
   -4.4268    3.0221   -0.2636 H   0  0  0  0  0  0  0  0  0  0  0  0
   -3.9482    2.8464   -2.0433 H   0  0  0  0  0  0  0  0  0  0  0  0
  1  2  1  0
  2  3  1  0
  3  4  1  0
  4  5  1  0
  5  6  2  0
  6  7  1  0
  7  8  2  0
  8  9  1  0
  9 10  2  0
 10 11  1  0
 11 12  1  0
 12 13  1  0
 13 14  2  0
 14 15  1  0
 15 16  2  0
 16 17  1  0
 17 18  2  0
  8 19  1  0
 19 20  1  0
 20 21  1  0
 11  2  1  0
 18 13  1  0
 10  5  1  0
 21  7  1  0
 18  9  1  0
  1 22  1  0
  1 23  1  0
  1 24  1  0
  3 25  1  0
  3 26  1  0
  4 27  1  0
  4 28  1  0
  6 29  1  0
 11 30  1  1
 12 31  1  0
 12 32  1  0
 14 33  1  0
 15 34  1  0
 16 35  1  0
 17 36  1  0
 20 37  1  0
 20 38  1  0
M  END

     RDKit          3D

 28 30  0  0  0  0  0  0  0  0999 V2000
   -3.6626    0.0475    0.5202 C   0  0  0  0  0  0  0  0  0  0  0  0
   -2.6857    0.4090   -0.4495 O   0  0  0  0  0  0  0  0  0  0  0  0
   -1.3470    0.0234   -0.3360 C   0  0  0  0  0  0  0  0  0  0  0  0
   -0.9562   -1.3151   -0.4295 C   0  0  0  0  0  0  0  0  0  0  0  0
   -1.6817   -2.4620   -0.6728 C   0  0  0  0  0  0  0  0  0  0  0  0
   -0.7422   -3.4844   -0.6696 C   0  0  0  0  0  0  0  0  0  0  0  0
    0.4645   -2.9971   -0.4524 O   0  0  0  0  0  0  0  0  0  0  0  0
    0.3539   -1.6980   -0.3138 C   0  0  0  0  0  0  0  0  0  0  0  0
    1.3861   -0.7861   -0.0958 C   0  0  0  0  0  0  0  0  0  0  0  0
    2.6956   -1.2849    0.0188 O   0  0  0  0  0  0  0  0  0  0  0  0
    3.8619   -0.5104    0.2803 C   0  0  0  0  0  0  0  0  0  0  0  0
    1.0350    0.5908   -0.0127 C   0  0  0  0  0  0  0  0  0  0  0  0
    1.9697    1.5198    0.1732 O   0  0  0  0  0  0  0  0  0  0  0  0
    1.6993    2.8180    0.2546 C   0  0  0  0  0  0  0  0  0  0  0  0
    2.6373    3.6378    0.4233 O   0  0  0  0  0  0  0  0  0  0  0  0
    0.3853    3.2763    0.1513 C   0  0  0  0  0  0  0  0  0  0  0  0
   -0.6373    2.3537   -0.0443 C   0  0  0  0  0  0  0  0  0  0  0  0
   -0.3333    0.9890   -0.1370 C   0  0  0  0  0  0  0  0  0  0  0  0
   -3.3211    0.3486    1.5326 H   0  0  0  0  0  0  0  0  0  0  0  0
   -3.8527   -1.0439    0.4996 H   0  0  0  0  0  0  0  0  0  0  0  0
   -4.6109    0.5752    0.2911 H   0  0  0  0  0  0  0  0  0  0  0  0
   -2.7425   -2.5563   -0.8518 H   0  0  0  0  0  0  0  0  0  0  0  0
   -0.9541   -4.5330   -0.8266 H   0  0  0  0  0  0  0  0  0  0  0  0
    3.7624    0.0178    1.2535 H   0  0  0  0  0  0  0  0  0  0  0  0
    4.7370   -1.1882    0.3403 H   0  0  0  0  0  0  0  0  0  0  0  0
    4.0381    0.2108   -0.5436 H   0  0  0  0  0  0  0  0  0  0  0  0
    0.1591    4.3331    0.2203 H   0  0  0  0  0  0  0  0  0  0  0  0
   -1.6579    2.7085   -0.1237 H   0  0  0  0  0  0  0  0  0  0  0  0
  1  2  1  0
  2  3  1  0
  3  4  2  0
  4  5  1  0
  5  6  2  0
  6  7  1  0
  7  8  1  0
  8  9  2  0
  9 10  1  0
 10 11  1  0
  9 12  1  0
 12 13  1  0
 13 14  1  0
 14 15  2  0
 14 16  1  0
 16 17  2  0
 17 18  1  0
 18  3  1  0
  8  4  1  0
 18 12  2  0
  1 19  1  0
  1 20  1  0
  1 21  1  0
  5 22  1  0
  6 23  1  0
 11 24  1  0
 11 25  1  0
 11 26  1  0
 16 27  1  0
 17 28  1  0
M  END

     RDKit          3D

 35 37  0  0  0  0  0  0  0  0999 V2000
   -5.6177    1.6880    1.6080 C   0  0  0  0  0  0  0  0  0  0  0  0
   -4.2148    1.5300    1.7971 O   0  0  0  0  0  0  0  0  0  0  0  0
   -3.3778    0.7939    0.9434 C   0  0  0  0  0  0  0  0  0  0  0  0
   -3.8705    0.0750   -0.1620 C   0  0  0  0  0  0  0  0  0  0  0  0
   -2.9959   -0.6269   -1.0071 C   0  0  0  0  0  0  0  0  0  0  0  0
   -3.5023   -1.3044   -2.1199 O   0  0  0  0  0  0  0  0  0  0  0  0
   -1.6108   -0.6174   -0.7408 C   0  0  0  0  0  0  0  0  0  0  0  0
   -1.1254    0.0849    0.3751 C   0  0  0  0  0  0  0  0  0  0  0  0
   -2.0052    0.7848    1.2072 C   0  0  0  0  0  0  0  0  0  0  0  0
    0.2467    0.1144    0.6499 O   0  0  0  0  0  0  0  0  0  0  0  0
    1.2089   -0.7118   -0.0222 C   0  0  2  0  0  0  0  0  0  0  0  0
    2.6091   -0.1320    0.1193 C   0  0  0  0  0  0  0  0  0  0  0  0
    3.7002   -0.7682   -0.5113 C   0  0  0  0  0  0  0  0  0  0  0  0
    4.9857   -0.2252   -0.4250 C   0  0  0  0  0  0  0  0  0  0  0  0
    5.2093    0.9416    0.3202 C   0  0  0  0  0  0  0  0  0  0  0  0
    6.4815    1.5029    0.3973 O   0  0  0  0  0  0  0  0  0  0  0  0
    4.1450    1.5510    0.9939 C   0  0  0  0  0  0  0  0  0  0  0  0
    2.8551    1.0239    0.8963 C   0  0  0  0  0  0  0  0  0  0  0  0
    0.8254   -0.8757   -1.5098 C   0  0  0  0  0  0  0  0  0  0  0  0
   -0.6195   -1.2513   -1.6370 C   0  0  0  0  0  0  0  0  0  0  0  0
   -0.9736   -2.0531   -2.5453 O   0  0  0  0  0  0  0  0  0  0  0  0
   -6.1236    0.6995    1.6541 H   0  0  0  0  0  0  0  0  0  0  0  0
   -6.0219    2.3322    2.4165 H   0  0  0  0  0  0  0  0  0  0  0  0
   -5.8161    2.1693    0.6264 H   0  0  0  0  0  0  0  0  0  0  0  0
   -4.9277    0.0721   -0.3853 H   0  0  0  0  0  0  0  0  0  0  0  0
   -4.4887   -1.3043   -2.3389 H   0  0  0  0  0  0  0  0  0  0  0  0
   -1.6162    1.3327    2.0603 H   0  0  0  0  0  0  0  0  0  0  0  0
    1.1975   -1.7165    0.4605 H   0  0  0  0  0  0  0  0  0  0  0  0
    3.5563   -1.6781   -1.0831 H   0  0  0  0  0  0  0  0  0  0  0  0
    5.8071   -0.7063   -0.9400 H   0  0  0  0  0  0  0  0  0  0  0  0
    7.2733    1.0823   -0.0821 H   0  0  0  0  0  0  0  0  0  0  0  0
    4.3163    2.4363    1.5914 H   0  0  0  0  0  0  0  0  0  0  0  0
    2.0555    1.5242    1.4333 H   0  0  0  0  0  0  0  0  0  0  0  0
    1.4411   -1.6697   -1.9852 H   0  0  0  0  0  0  0  0  0  0  0  0
    0.9937    0.0818   -2.0554 H   0  0  0  0  0  0  0  0  0  0  0  0
  1  2  1  0
  2  3  1  0
  3  4  2  0
  4  5  1  0
  5  6  1  0
  5  7  2  0
  7  8  1  0
  8  9  2  0
  8 10  1  0
 10 11  1  0
 11 12  1  0
 12 13  2  0
 13 14  1  0
 14 15  2  0
 15 16  1  0
 15 17  1  0
 17 18  2  0
 11 19  1  0
 19 20  1  0
 20 21  2  0
  9  3  1  0
 18 12  1  0
 20  7  1  0
  1 22  1  0
  1 23  1  0
  1 24  1  0
  4 25  1  0
  6 26  1  0
  9 27  1  0
 11 28  1  1
 13 29  1  0
 14 30  1  0
 16 31  1  0
 17 32  1  0
 18 33  1  0
 19 34  1  0
 19 35  1  0
M  END

     RDKit          3D

 30 32  0  0  0  0  0  0  0  0999 V2000
   -3.9645    0.7853   -0.3999 C   0  0  0  0  0  0  0  0  0  0  0  0
   -2.8152   -0.0431    0.1849 C   0  0  0  0  0  0  0  0  0  0  0  0
   -3.2737   -1.4889    0.4140 C   0  0  0  0  0  0  0  0  0  0  0  0
   -2.3837    0.5544    1.5072 C   0  0  0  0  0  0  0  0  0  0  0  0
   -1.0930    0.6576    1.8312 C   0  0  0  0  0  0  0  0  0  0  0  0
   -0.0343    0.2925    0.8676 C   0  0  0  0  0  0  0  0  0  0  0  0
   -0.3829   -0.0319   -0.3904 C   0  0  0  0  0  0  0  0  0  0  0  0
   -1.7354   -0.0481   -0.7597 O   0  0  0  0  0  0  0  0  0  0  0  0
    0.6408   -0.3492   -1.4047 C   0  0  0  0  0  0  0  0  0  0  0  0
    0.2817   -0.6377   -2.5782 O   0  0  0  0  0  0  0  0  0  0  0  0
    2.0756   -0.3294   -1.0403 C   0  0  0  0  0  0  0  0  0  0  0  0
    3.0698   -0.6357   -1.9859 C   0  0  0  0  0  0  0  0  0  0  0  0
    4.4184   -0.6118   -1.6219 C   0  0  0  0  0  0  0  0  0  0  0  0
    4.7863   -0.2834   -0.3158 C   0  0  0  0  0  0  0  0  0  0  0  0
    3.8074    0.0229    0.6328 C   0  0  0  0  0  0  0  0  0  0  0  0
    2.4466    0.0026    0.2790 C   0  0  0  0  0  0  0  0  0  0  0  0
    1.3929    0.3261    1.2694 C   0  0  0  0  0  0  0  0  0  0  0  0
    1.7070    0.6288    2.4530 O   0  0  0  0  0  0  0  0  0  0  0  0
   -3.6335    1.8331   -0.5661 H   0  0  0  0  0  0  0  0  0  0  0  0
   -4.8378    0.7926    0.2880 H   0  0  0  0  0  0  0  0  0  0  0  0
   -4.2854    0.3635   -1.3766 H   0  0  0  0  0  0  0  0  0  0  0  0
   -4.1271   -1.5245    1.1256 H   0  0  0  0  0  0  0  0  0  0  0  0
   -2.4394   -2.0947    0.8291 H   0  0  0  0  0  0  0  0  0  0  0  0
   -3.5912   -1.9489   -0.5463 H   0  0  0  0  0  0  0  0  0  0  0  0
   -3.1338    0.8140    2.2451 H   0  0  0  0  0  0  0  0  0  0  0  0
   -0.8270    1.0259    2.8141 H   0  0  0  0  0  0  0  0  0  0  0  0
    2.8054   -0.8931   -3.0038 H   0  0  0  0  0  0  0  0  0  0  0  0
    5.1799   -0.8485   -2.3539 H   0  0  0  0  0  0  0  0  0  0  0  0
    5.8322   -0.2658   -0.0378 H   0  0  0  0  0  0  0  0  0  0  0  0
    4.1142    0.2751    1.6403 H   0  0  0  0  0  0  0  0  0  0  0  0
  1  2  1  0
  2  3  1  0
  2  4  1  0
  4  5  2  0
  5  6  1  0
  6  7  2  0
  7  8  1  0
  7  9  1  0
  9 10  2  0
  9 11  1  0
 11 12  2  0
 12 13  1  0
 13 14  2  0
 14 15  1  0
 15 16  2  0
 16 17  1  0
 17 18  2  0
  8  2  1  0
 16 11  1  0
 17  6  1  0
  1 19  1  0
  1 20  1  0
  1 21  1  0
  3 22  1  0
  3 23  1  0
  3 24  1  0
  4 25  1  0
  5 26  1  0
 12 27  1  0
 13 28  1  0
 14 29  1  0
 15 30  1  0
M  END

     RDKit          3D

 17 16  0  0  0  0  0  0  0  0999 V2000
    1.8671   -0.0870   -1.5808 O   0  0  0  0  0  0  0  0  0  0  0  0
    1.6273    0.3266   -0.4149 C   0  0  0  0  0  0  0  0  0  0  0  0
    1.7083    1.6861   -0.1296 O   0  0  0  0  0  0  0  0  0  0  0  0
    1.2589   -0.6433    0.6657 C   0  0  0  0  0  0  0  0  0  0  0  0
   -0.1621   -0.4057    1.2025 C   0  0  0  0  0  0  0  0  0  0  0  0
   -1.2672   -0.8809    0.2449 C   0  0  0  0  0  0  0  0  0  0  0  0
   -1.4383    0.0382   -0.9256 C   0  0  0  0  0  0  0  0  0  0  0  0
   -1.2114   -0.3766   -2.0936 O   0  0  0  0  0  0  0  0  0  0  0  0
   -1.8521    1.3511   -0.7227 O   0  0  0  0  0  0  0  0  0  0  0  0
    1.9529    2.3543   -0.8506 H   0  0  0  0  0  0  0  0  0  0  0  0
    1.9808   -0.5151    1.5005 H   0  0  0  0  0  0  0  0  0  0  0  0
    1.3592   -1.6884    0.2991 H   0  0  0  0  0  0  0  0  0  0  0  0
   -0.3068    0.6655    1.4659 H   0  0  0  0  0  0  0  0  0  0  0  0
   -0.2651   -0.9834    2.1468 H   0  0  0  0  0  0  0  0  0  0  0  0
   -1.0529   -1.9154   -0.1027 H   0  0  0  0  0  0  0  0  0  0  0  0
   -2.2296   -0.9112    0.7991 H   0  0  0  0  0  0  0  0  0  0  0  0
   -1.9690    1.9853   -1.5039 H   0  0  0  0  0  0  0  0  0  0  0  0
  1  2  2  0
  2  3  1  0
  2  4  1  0
  4  5  1  0
  5  6  1  0
  6  7  1  0
  7  8  2  0
  7  9  1  0
  3 10  1  0
  4 11  1  0
  4 12  1  0
  5 13  1  0
  5 14  1  0
  6 15  1  0
  6 16  1  0
  9 17  1  0
M  END

     RDKit          3D

 23 23  0  0  0  0  0  0  0  0999 V2000
    3.2967   -1.6460   -0.3420 C   0  0  0  0  0  0  0  0  0  0  0  0
    2.5023   -0.4680   -0.2480 O   0  0  0  0  0  0  0  0  0  0  0  0
    1.0985   -0.4516   -0.2691 C   0  0  0  0  0  0  0  0  0  0  0  0
    0.3396   -1.6302   -0.3880 C   0  0  0  0  0  0  0  0  0  0  0  0
   -1.0550   -1.5755   -0.4055 C   0  0  0  0  0  0  0  0  0  0  0  0
   -1.7211   -0.3450   -0.3047 C   0  0  0  0  0  0  0  0  0  0  0  0
   -3.2005   -0.2949   -0.3239 C   0  0  0  0  0  0  0  0  0  0  0  0
   -3.8040    0.8085   -0.2336 O   0  0  0  0  0  0  0  0  0  0  0  0
   -3.9411   -1.4683   -0.4421 O   0  0  0  0  0  0  0  0  0  0  0  0
   -0.9639    0.8335   -0.1858 C   0  0  0  0  0  0  0  0  0  0  0  0
    0.4444    0.7855   -0.1675 C   0  0  0  0  0  0  0  0  0  0  0  0
    1.2285    1.9444   -0.0499 O   0  0  0  0  0  0  0  0  0  0  0  0
    0.7076    3.2650    0.0613 C   0  0  0  0  0  0  0  0  0  0  0  0
    4.3687   -1.3645   -0.2993 H   0  0  0  0  0  0  0  0  0  0  0  0
    3.0737   -2.3258    0.5073 H   0  0  0  0  0  0  0  0  0  0  0  0
    3.1028   -2.1615   -1.3063 H   0  0  0  0  0  0  0  0  0  0  0  0
    0.8187   -2.5964   -0.4679 H   0  0  0  0  0  0  0  0  0  0  0  0
   -1.6112   -2.4999   -0.4981 H   0  0  0  0  0  0  0  0  0  0  0  0
   -4.9538   -1.4453   -0.4563 H   0  0  0  0  0  0  0  0  0  0  0  0
   -1.4727    1.7845   -0.1078 H   0  0  0  0  0  0  0  0  0  0  0  0
    0.1100    3.5172   -0.8401 H   0  0  0  0  0  0  0  0  0  0  0  0
    0.0809    3.3529    0.9739 H   0  0  0  0  0  0  0  0  0  0  0  0
    1.5507    3.9815    0.1398 H   0  0  0  0  0  0  0  0  0  0  0  0
  1  2  1  0
  2  3  1  0
  3  4  2  0
  4  5  1  0
  5  6  2  0
  6  7  1  0
  7  8  2  0
  7  9  1  0
  6 10  1  0
 10 11  2  0
 11 12  1  0
 12 13  1  0
 11  3  1  0
  1 14  1  0
  1 15  1  0
  1 16  1  0
  4 17  1  0
  5 18  1  0
  9 19  1  0
 10 20  1  0
 13 21  1  0
 13 22  1  0
 13 23  1  0
M  END

     RDKit          3D

 25 25  0  0  0  0  0  0  0  0999 V2000
   -3.4140   -1.1867   -1.5172 C   0  0  0  0  0  0  0  0  0  0  0  0
   -2.2482   -1.9225   -1.0218 N   0  0  0  0  0  0  0  0  0  0  0  0
   -1.0564   -1.0565   -0.9134 C   0  0  0  0  0  0  0  0  0  0  0  0
   -0.6938   -0.7286    0.5537 C   0  0  2  0  0  0  0  0  0  0  0  0
   -1.7316   -0.0527    1.2192 O   0  0  0  0  0  0  0  0  0  0  0  0
    0.6005    0.0586    0.6287 C   0  0  0  0  0  0  0  0  0  0  0  0
    1.7996   -0.5950    0.9659 C   0  0  0  0  0  0  0  0  0  0  0  0
    3.0059    0.1107    1.0071 C   0  0  0  0  0  0  0  0  0  0  0  0
    3.0324    1.4762    0.7100 C   0  0  0  0  0  0  0  0  0  0  0  0
    4.2410    2.1678    0.7572 O   0  0  0  0  0  0  0  0  0  0  0  0
    1.8461    2.1346    0.3609 C   0  0  0  0  0  0  0  0  0  0  0  0
    0.6383    1.4312    0.3112 C   0  0  0  0  0  0  0  0  0  0  0  0
   -4.2777   -1.8802   -1.6118 H   0  0  0  0  0  0  0  0  0  0  0  0
   -3.2068   -0.7695   -2.5253 H   0  0  0  0  0  0  0  0  0  0  0  0
   -3.6912   -0.3697   -0.8201 H   0  0  0  0  0  0  0  0  0  0  0  0
   -2.4988   -2.3364   -0.0924 H   0  0  0  0  0  0  0  0  0  0  0  0
   -1.1672   -0.1148   -1.4973 H   0  0  0  0  0  0  0  0  0  0  0  0
   -0.2034   -1.6005   -1.3705 H   0  0  0  0  0  0  0  0  0  0  0  0
   -0.5504   -1.6954    1.0873 H   0  0  0  0  0  0  0  0  0  0  0  0
   -2.0490    0.6846    0.6386 H   0  0  0  0  0  0  0  0  0  0  0  0
    1.8049   -1.6548    1.1883 H   0  0  0  0  0  0  0  0  0  0  0  0
    3.9238   -0.4068    1.2560 H   0  0  0  0  0  0  0  0  0  0  0  0
    4.2930    3.1613    0.5631 H   0  0  0  0  0  0  0  0  0  0  0  0
    1.8603    3.1882    0.1138 H   0  0  0  0  0  0  0  0  0  0  0  0
   -0.2574    1.9569    0.0086 H   0  0  0  0  0  0  0  0  0  0  0  0
  1  2  1  0
  2  3  1  0
  3  4  1  0
  4  5  1  0
  4  6  1  0
  6  7  2  0
  7  8  1  0
  8  9  2  0
  9 10  1  0
  9 11  1  0
 11 12  2  0
 12  6  1  0
  1 13  1  0
  1 14  1  0
  1 15  1  0
  2 16  1  0
  3 17  1  0
  3 18  1  0
  4 19  1  1
  5 20  1  0
  7 21  1  0
  8 22  1  0
 10 23  1  0
 11 24  1  0
 12 25  1  0
M  END

     RDKit          3D

 20 20  0  0  0  0  0  0  0  0999 V2000
   -3.0470    1.6675    2.0244 C   0  0  0  0  0  0  0  0  0  0  0  0
   -1.8265    1.3905    1.3483 O   0  0  0  0  0  0  0  0  0  0  0  0
   -1.5099    0.1217    0.8502 C   0  0  0  0  0  0  0  0  0  0  0  0
   -2.3229   -0.8332    0.9935 O   0  0  0  0  0  0  0  0  0  0  0  0
   -0.2213   -0.0974    0.1562 C   0  0  0  0  0  0  0  0  0  0  0  0
    0.6863    0.9636   -0.0051 C   0  0  0  0  0  0  0  0  0  0  0  0
    1.9041    0.7604   -0.6600 C   0  0  0  0  0  0  0  0  0  0  0  0
    2.2331   -0.5046   -1.1631 C   0  0  0  0  0  0  0  0  0  0  0  0
    3.4467   -0.7107   -1.8167 O   0  0  0  0  0  0  0  0  0  0  0  0
    1.3373   -1.5695   -1.0087 C   0  0  0  0  0  0  0  0  0  0  0  0
    1.6677   -2.8272   -1.5105 O   0  0  0  0  0  0  0  0  0  0  0  0
    0.1150   -1.3660   -0.3515 C   0  0  0  0  0  0  0  0  0  0  0  0
   -3.9081    1.4662    1.3525 H   0  0  0  0  0  0  0  0  0  0  0  0
   -3.0647    2.7362    2.3212 H   0  0  0  0  0  0  0  0  0  0  0  0
   -3.1274    1.0392    2.9366 H   0  0  0  0  0  0  0  0  0  0  0  0
    0.4572    1.9515    0.3741 H   0  0  0  0  0  0  0  0  0  0  0  0
    2.5922    1.5881   -0.7760 H   0  0  0  0  0  0  0  0  0  0  0  0
    4.1147    0.0406   -1.9434 H   0  0  0  0  0  0  0  0  0  0  0  0
    1.0412   -3.6179   -1.4149 H   0  0  0  0  0  0  0  0  0  0  0  0
   -0.5677   -2.1992   -0.2396 H   0  0  0  0  0  0  0  0  0  0  0  0
  1  2  1  0
  2  3  1  0
  3  4  2  0
  3  5  1  0
  5  6  2  0
  6  7  1  0
  7  8  2  0
  8  9  1  0
  8 10  1  0
 10 11  1  0
 10 12  2  0
 12  5  1  0
  1 13  1  0
  1 14  1  0
  1 15  1  0
  6 16  1  0
  7 17  1  0
  9 18  1  0
 11 19  1  0
 12 20  1  0
M  END

     RDKit          3D

 44 47  0  0  0  0  0  0  0  0999 V2000
   -3.7637    1.5759   -2.1290 C   0  0  0  0  0  0  0  0  0  0  0  0
   -2.7675    0.4807   -1.8507 C   0  0  0  0  0  0  0  0  0  0  0  0
   -1.3406    0.6432   -2.3165 C   0  0  0  0  0  0  0  0  0  0  0  0
   -3.1922   -0.6231   -1.1955 C   0  0  0  0  0  0  0  0  0  0  0  0
   -2.3172   -1.7918   -0.8069 C   0  0  0  0  0  0  0  0  0  0  0  0
   -1.8249   -1.6454    0.6127 C   0  0  0  0  0  0  0  0  0  0  0  0
   -2.6784   -1.8098    1.7411 C   0  0  0  0  0  0  0  0  0  0  0  0
   -4.0233   -2.1649    1.6132 O   0  0  0  0  0  0  0  0  0  0  0  0
   -2.1676   -1.6220    3.0412 C   0  0  0  0  0  0  0  0  0  0  0  0
   -0.8231   -1.2800    3.2420 C   0  0  0  0  0  0  0  0  0  0  0  0
    0.0004   -1.1420    2.1280 C   0  0  0  0  0  0  0  0  0  0  0  0
   -0.4827   -1.3210    0.8609 C   0  0  0  0  0  0  0  0  0  0  0  0
    0.5130   -1.1492   -0.0793 O   0  0  0  0  0  0  0  0  0  0  0  0
    1.7708   -0.9545    0.5637 C   0  0  1  0  0  0  0  0  0  0  0  0
    2.5582    0.1524   -0.0945 C   0  0  0  0  0  0  0  0  0  0  0  0
    2.8519    0.0870   -1.4658 C   0  0  0  0  0  0  0  0  0  0  0  0
    3.7033    1.0297   -2.0497 C   0  0  0  0  0  0  0  0  0  0  0  0
    4.2819    2.0357   -1.2635 C   0  0  0  0  0  0  0  0  0  0  0  0
    5.1467    2.9701   -1.8274 O   0  0  0  0  0  0  0  0  0  0  0  0
    3.9901    2.1051    0.1018 C   0  0  0  0  0  0  0  0  0  0  0  0
    3.1187    1.1790    0.6824 C   0  0  0  0  0  0  0  0  0  0  0  0
    2.8004    1.2799    2.0349 O   0  0  0  0  0  0  0  0  0  0  0  0
    1.5945    0.7208    2.5386 C   0  0  0  0  0  0  0  0  0  0  0  0
    1.4366   -0.7394    2.0768 C   0  0  1  0  0  0  0  0  0  0  0  0
   -3.3040    2.4181   -2.6856 H   0  0  0  0  0  0  0  0  0  0  0  0
   -4.6031    1.1780   -2.7355 H   0  0  0  0  0  0  0  0  0  0  0  0
   -4.1615    1.9694   -1.1716 H   0  0  0  0  0  0  0  0  0  0  0  0
   -1.0669   -0.1787   -3.0146 H   0  0  0  0  0  0  0  0  0  0  0  0
   -0.6560    0.6463   -1.4433 H   0  0  0  0  0  0  0  0  0  0  0  0
   -1.1977    1.6014   -2.8556 H   0  0  0  0  0  0  0  0  0  0  0  0
   -4.2364   -0.6733   -0.8934 H   0  0  0  0  0  0  0  0  0  0  0  0
   -1.4722   -1.9142   -1.5150 H   0  0  0  0  0  0  0  0  0  0  0  0
   -2.9037   -2.7292   -0.8989 H   0  0  0  0  0  0  0  0  0  0  0  0
   -4.4656   -2.3617    0.7258 H   0  0  0  0  0  0  0  0  0  0  0  0
   -2.8202   -1.7407    3.8972 H   0  0  0  0  0  0  0  0  0  0  0  0
   -0.4383   -1.1202    4.2402 H   0  0  0  0  0  0  0  0  0  0  0  0
    2.3526   -1.8972    0.4707 H   0  0  0  0  0  0  0  0  0  0  0  0
    2.4401   -0.7075   -2.0749 H   0  0  0  0  0  0  0  0  0  0  0  0
    3.9292    0.9658   -3.1072 H   0  0  0  0  0  0  0  0  0  0  0  0
    5.3862    2.9436   -2.8123 H   0  0  0  0  0  0  0  0  0  0  0  0
    4.4293    2.8865    0.7095 H   0  0  0  0  0  0  0  0  0  0  0  0
    0.7446    1.3393    2.1718 H   0  0  0  0  0  0  0  0  0  0  0  0
    1.6032    0.7694    3.6487 H   0  0  0  0  0  0  0  0  0  0  0  0
    2.0552   -1.4114    2.7112 H   0  0  0  0  0  0  0  0  0  0  0  0
  1  2  1  0
  2  3  1  0
  2  4  2  3
  4  5  1  0
  5  6  1  0
  6  7  2  0
  7  8  1  0
  7  9  1  0
  9 10  2  0
 10 11  1  0
 11 12  2  0
 12 13  1  0
 13 14  1  0
 14 15  1  0
 15 16  2  0
 16 17  1  0
 17 18  2  0
 18 19  1  0
 18 20  1  0
 20 21  2  0
 21 22  1  0
 22 23  1  0
 23 24  1  0
 12  6  1  0
 24 14  1  0
 24 11  1  0
 21 15  1  0
  1 25  1  0
  1 26  1  0
  1 27  1  0
  3 28  1  0
  3 29  1  0
  3 30  1  0
  4 31  1  0
  5 32  1  0
  5 33  1  0
  8 34  1  0
  9 35  1  0
 10 36  1  0
 14 37  1  1
 16 38  1  0
 17 39  1  0
 19 40  1  0
 20 41  1  0
 23 42  1  0
 23 43  1  0
 24 44  1  1
M  END

     RDKit          3D

 22 22  0  0  0  0  0  0  0  0999 V2000
    4.5271    0.7698    0.6803 C   0  0  0  0  0  0  0  0  0  0  0  0
    3.1296    0.5417    0.5441 O   0  0  0  0  0  0  0  0  0  0  0  0
    2.5841   -0.1867   -0.5189 C   0  0  0  0  0  0  0  0  0  0  0  0
    3.3335   -0.6749   -1.4078 O   0  0  0  0  0  0  0  0  0  0  0  0
    1.1306   -0.3953   -0.6143 C   0  0  0  0  0  0  0  0  0  0  0  0
    0.2807    0.1173    0.2860 C   0  0  0  0  0  0  0  0  0  0  0  0
   -1.1915   -0.0575    0.2233 C   0  0  0  0  0  0  0  0  0  0  0  0
   -2.0067    0.8432    0.9310 C   0  0  0  0  0  0  0  0  0  0  0  0
   -3.3984    0.7114    0.9085 C   0  0  0  0  0  0  0  0  0  0  0  0
   -3.9920   -0.3268    0.1880 C   0  0  0  0  0  0  0  0  0  0  0  0
   -3.1945   -1.2388   -0.5063 C   0  0  0  0  0  0  0  0  0  0  0  0
   -1.8018   -1.1117   -0.4882 C   0  0  0  0  0  0  0  0  0  0  0  0
    5.0635   -0.1986    0.7693 H   0  0  0  0  0  0  0  0  0  0  0  0
    4.9081    1.3308   -0.1992 H   0  0  0  0  0  0  0  0  0  0  0  0
    4.7111    1.3683    1.5959 H   0  0  0  0  0  0  0  0  0  0  0  0
    0.7649   -0.9611   -1.4600 H   0  0  0  0  0  0  0  0  0  0  0  0
    0.6741    0.7312    1.0882 H   0  0  0  0  0  0  0  0  0  0  0  0
   -1.5655    1.6557    1.4958 H   0  0  0  0  0  0  0  0  0  0  0  0
   -4.0169    1.4145    1.4513 H   0  0  0  0  0  0  0  0  0  0  0  0
   -5.0695   -0.4285    0.1731 H   0  0  0  0  0  0  0  0  0  0  0  0
   -3.6558   -2.0506   -1.0539 H   0  0  0  0  0  0  0  0  0  0  0  0
   -1.2147   -1.8534   -1.0112 H   0  0  0  0  0  0  0  0  0  0  0  0
  1  2  1  0
  2  3  1  0
  3  4  2  0
  3  5  1  0
  5  6  2  0
  6  7  1  0
  7  8  2  0
  8  9  1  0
  9 10  2  0
 10 11  1  0
 11 12  2  0
 12  7  1  0
  1 13  1  0
  1 14  1  0
  1 15  1  0
  5 16  1  0
  6 17  1  0
  8 18  1  0
  9 19  1  0
 10 20  1  0
 11 21  1  0
 12 22  1  0
M  END

     RDKit          3D

 40 43  0  0  0  0  0  0  0  0999 V2000
   -1.0913    2.4559    0.1943 C   0  0  0  0  0  0  0  0  0  0  0  0
   -0.7137    1.2301   -0.1839 C   0  0  0  0  0  0  0  0  0  0  0  0
    0.7150    0.8748   -0.0728 C   0  0  0  0  0  0  0  0  0  0  0  0
    1.7072    1.6651   -0.5477 N   0  0  0  0  0  0  0  0  0  0  0  0
    2.8540    1.0236   -0.2757 C   0  0  0  0  0  0  0  0  0  0  0  0
    4.1478    1.4588   -0.5583 C   0  0  0  0  0  0  0  0  0  0  0  0
    5.2193    0.6425   -0.1559 C   0  0  0  0  0  0  0  0  0  0  0  0
    4.9766   -0.5741    0.5176 C   0  0  0  0  0  0  0  0  0  0  0  0
    3.6602   -0.9873    0.7918 C   0  0  0  0  0  0  0  0  0  0  0  0
    2.6135   -0.1624    0.3705 C   0  0  0  0  0  0  0  0  0  0  0  0
    1.2389   -0.2860    0.4992 C   0  0  0  0  0  0  0  0  0  0  0  0
    0.5067   -1.3326    1.3012 C   0  0  0  0  0  0  0  0  0  0  0  0
   -0.6862   -1.8982    0.6339 N   0  0  0  0  0  0  0  0  0  0  0  0
   -0.6149   -2.0817   -0.8299 C   0  0  0  0  0  0  0  0  0  0  0  0
   -1.1018   -0.8506   -1.6343 C   0  0  0  0  0  0  0  0  0  0  0  0
   -1.7355    0.2709   -0.7793 C   0  0  1  0  0  0  0  0  0  0  0  0
   -2.5924   -0.3417    0.3105 C   0  0  0  0  0  0  0  0  0  0  0  0
   -3.8801    0.0071    0.5389 C   0  0  0  0  0  0  0  0  0  0  0  0
   -4.6608    0.9839   -0.2928 C   0  0  0  0  0  0  0  0  0  0  0  0
   -1.9973   -1.4508    1.1423 C   0  0  0  0  0  0  0  0  0  0  0  0
   -2.1163    2.7812    0.1043 H   0  0  0  0  0  0  0  0  0  0  0  0
   -0.3774    3.1582    0.6074 H   0  0  0  0  0  0  0  0  0  0  0  0
    1.6042    2.5859   -1.0306 H   0  0  0  0  0  0  0  0  0  0  0  0
    4.3237    2.3981   -1.0665 H   0  0  0  0  0  0  0  0  0  0  0  0
    6.2363    0.9511   -0.3599 H   0  0  0  0  0  0  0  0  0  0  0  0
    5.8091   -1.1927    0.8266 H   0  0  0  0  0  0  0  0  0  0  0  0
    3.4778   -1.9187    1.3101 H   0  0  0  0  0  0  0  0  0  0  0  0
    1.1934   -2.1770    1.5115 H   0  0  0  0  0  0  0  0  0  0  0  0
    0.2552   -0.8956    2.2908 H   0  0  0  0  0  0  0  0  0  0  0  0
    0.4206   -2.3492   -1.1360 H   0  0  0  0  0  0  0  0  0  0  0  0
   -1.2458   -2.9569   -1.0985 H   0  0  0  0  0  0  0  0  0  0  0  0
   -0.2663   -0.4410   -2.2432 H   0  0  0  0  0  0  0  0  0  0  0  0
   -1.8631   -1.1996   -2.3673 H   0  0  0  0  0  0  0  0  0  0  0  0
   -2.3568    0.8635   -1.4846 H   0  0  0  0  0  0  0  0  0  0  0  0
   -4.4200   -0.4850    1.3445 H   0  0  0  0  0  0  0  0  0  0  0  0
   -5.6998    1.0496    0.0929 H   0  0  0  0  0  0  0  0  0  0  0  0
   -4.2112    1.9941   -0.2409 H   0  0  0  0  0  0  0  0  0  0  0  0
   -4.7044    0.6394   -1.3474 H   0  0  0  0  0  0  0  0  0  0  0  0
   -1.9390   -1.1295    2.2045 H   0  0  0  0  0  0  0  0  0  0  0  0
   -2.6854   -2.3236    1.1126 H   0  0  0  0  0  0  0  0  0  0  0  0
  1  2  2  3
  2  3  1  0
  3  4  1  0
  4  5  1  0
  5  6  2  0
  6  7  1  0
  7  8  2  0
  8  9  1  0
  9 10  2  0
 10 11  1  0
 11 12  1  0
 12 13  1  0
 13 14  1  0
 14 15  1  0
 15 16  1  0
 16 17  1  0
 17 18  2  0
 18 19  1  0
 17 20  1  0
 16  2  1  0
 11  3  2  0
 20 13  1  0
 10  5  1  0
  1 21  1  0
  1 22  1  0
  4 23  1  0
  6 24  1  0
  7 25  1  0
  8 26  1  0
  9 27  1  0
 12 28  1  0
 12 29  1  0
 14 30  1  0
 14 31  1  0
 15 32  1  0
 15 33  1  0
 16 34  1  6
 18 35  1  0
 19 36  1  0
 19 37  1  0
 19 38  1  0
 20 39  1  0
 20 40  1  0
M  END

     RDKit          3D

 32 34  0  0  0  0  0  0  0  0999 V2000
   -5.0062    1.6593   -0.4022 C   0  0  0  0  0  0  0  0  0  0  0  0
   -4.6300    0.2950   -0.2449 O   0  0  0  0  0  0  0  0  0  0  0  0
   -3.3081   -0.1531   -0.1002 C   0  0  0  0  0  0  0  0  0  0  0  0
   -3.0868   -1.5212    0.0467 C   0  0  0  0  0  0  0  0  0  0  0  0
   -1.7920   -2.0366    0.1990 C   0  0  0  0  0  0  0  0  0  0  0  0
   -1.6317   -3.4212    0.2268 O   0  0  0  0  0  0  0  0  0  0  0  0
   -0.6782   -1.1570    0.2682 C   0  0  0  0  0  0  0  0  0  0  0  0
    0.6554   -1.6039    0.5065 C   0  0  0  0  0  0  0  0  0  0  0  0
    0.9317   -2.9070    0.9330 O   0  0  0  0  0  0  0  0  0  0  0  0
    1.7385   -0.7001    0.3604 C   0  0  0  0  0  0  0  0  0  0  0  0
    3.0920   -1.0891    0.4946 C   0  0  0  0  0  0  0  0  0  0  0  0
    3.4158   -2.2853    0.7253 O   0  0  0  0  0  0  0  0  0  0  0  0
    4.1010   -0.1349    0.3613 C   0  0  0  0  0  0  0  0  0  0  0  0
    3.7544    1.1924    0.0993 C   0  0  0  0  0  0  0  0  0  0  0  0
    4.8163    2.2340   -0.0477 C   0  0  0  0  0  0  0  0  0  0  0  0
    2.4767    1.5363   -0.0185 O   0  0  0  0  0  0  0  0  0  0  0  0
    1.4789    0.6644    0.0990 C   0  0  0  0  0  0  0  0  0  0  0  0
    0.1706    1.1188   -0.0279 C   0  0  0  0  0  0  0  0  0  0  0  0
   -0.9060    0.2289    0.0471 C   0  0  0  0  0  0  0  0  0  0  0  0
   -2.2108    0.7194   -0.1155 C   0  0  0  0  0  0  0  0  0  0  0  0
   -4.6799    2.2497    0.4800 H   0  0  0  0  0  0  0  0  0  0  0  0
   -6.1105    1.7236   -0.4839 H   0  0  0  0  0  0  0  0  0  0  0  0
   -4.5566    2.0749   -1.3286 H   0  0  0  0  0  0  0  0  0  0  0  0
   -3.9332   -2.1965    0.0183 H   0  0  0  0  0  0  0  0  0  0  0  0
   -2.4203   -4.0544    0.1615 H   0  0  0  0  0  0  0  0  0  0  0  0
    0.2884   -3.4646    1.4772 H   0  0  0  0  0  0  0  0  0  0  0  0
    5.1419   -0.4214    0.4590 H   0  0  0  0  0  0  0  0  0  0  0  0
    4.3591    3.2226   -0.2650 H   0  0  0  0  0  0  0  0  0  0  0  0
    5.4012    2.3091    0.8931 H   0  0  0  0  0  0  0  0  0  0  0  0
    5.4961    1.9632   -0.8828 H   0  0  0  0  0  0  0  0  0  0  0  0
   -0.0020    2.1738   -0.2104 H   0  0  0  0  0  0  0  0  0  0  0  0
   -2.3656    1.7810   -0.2611 H   0  0  0  0  0  0  0  0  0  0  0  0
  1  2  1  0
  2  3  1  0
  3  4  2  0
  4  5  1  0
  5  6  1  0
  5  7  2  0
  7  8  1  0
  8  9  1  0
  8 10  2  0
 10 11  1  0
 11 12  2  0
 11 13  1  0
 13 14  2  0
 14 15  1  0
 14 16  1  0
 16 17  1  0
 17 18  2  0
 18 19  1  0
 19 20  2  0
 20  3  1  0
 19  7  1  0
 17 10  1  0
  1 21  1  0
  1 22  1  0
  1 23  1  0
  4 24  1  0
  6 25  1  0
  9 26  1  0
 13 27  1  0
 15 28  1  0
 15 29  1  0
 15 30  1  0
 18 31  1  0
 20 32  1  0
M  END

     RDKit          3D

 35 39  0  0  0  0  0  0  0  0999 V2000
    4.2308   -0.8334   -0.5219 C   0  0  0  0  0  0  0  0  0  0  0  0
    3.9183    0.4365   -0.9999 C   0  0  0  0  0  0  0  0  0  0  0  0
    2.6215    0.9414   -0.8852 C   0  0  0  0  0  0  0  0  0  0  0  0
    1.6086    0.1662   -0.2812 C   0  0  0  0  0  0  0  0  0  0  0  0
    1.9182   -1.1416    0.1603 C   0  0  0  0  0  0  0  0  0  0  0  0
    3.2335   -1.6193    0.0546 C   0  0  0  0  0  0  0  0  0  0  0  0
    0.8494   -1.9981    0.7846 C   0  0  0  0  0  0  0  0  0  0  0  0
   -0.4975   -1.7954    0.0492 C   0  0  1  0  0  0  0  0  0  0  0  0
   -1.5679   -2.5362    0.7421 N   0  0  0  0  0  0  0  0  0  0  0  0
   -2.8317   -2.3802    0.0225 C   0  0  0  0  0  0  0  0  0  0  0  0
   -3.3236   -0.9115    0.0146 C   0  0  0  0  0  0  0  0  0  0  0  0
   -2.1987    0.0903   -0.0380 C   0  0  0  0  0  0  0  0  0  0  0  0
   -2.5082    1.4652   -0.0511 C   0  0  0  0  0  0  0  0  0  0  0  0
   -1.4611    2.3820   -0.0919 C   0  0  0  0  0  0  0  0  0  0  0  0
   -0.1644    1.9911   -0.1715 C   0  0  0  0  0  0  0  0  0  0  0  0
    0.2009    0.6346   -0.1886 C   0  0  0  0  0  0  0  0  0  0  0  0
   -0.8393   -0.3227   -0.0480 C   0  0  0  0  0  0  0  0  0  0  0  0
    0.6436    3.1183   -0.1753 O   0  0  0  0  0  0  0  0  0  0  0  0
   -0.1886    4.2766   -0.0605 C   0  0  0  0  0  0  0  0  0  0  0  0
   -1.5278    3.7637   -0.0448 O   0  0  0  0  0  0  0  0  0  0  0  0
    5.2438   -1.2104   -0.6082 H   0  0  0  0  0  0  0  0  0  0  0  0
    4.6829    1.0325   -1.4797 H   0  0  0  0  0  0  0  0  0  0  0  0
    2.4301    1.9212   -1.3081 H   0  0  0  0  0  0  0  0  0  0  0  0
    3.4919   -2.6034    0.4185 H   0  0  0  0  0  0  0  0  0  0  0  0
    0.7521   -1.7347    1.8574 H   0  0  0  0  0  0  0  0  0  0  0  0
    1.1332   -3.0721    0.7246 H   0  0  0  0  0  0  0  0  0  0  0  0
   -0.3792   -2.2039   -0.9899 H   0  0  0  0  0  0  0  0  0  0  0  0
   -1.6970   -2.1529    1.7059 H   0  0  0  0  0  0  0  0  0  0  0  0
   -2.7063   -2.7409   -1.0170 H   0  0  0  0  0  0  0  0  0  0  0  0
   -3.6047   -3.0403    0.4821 H   0  0  0  0  0  0  0  0  0  0  0  0
   -3.9413   -0.7052    0.9257 H   0  0  0  0  0  0  0  0  0  0  0  0
   -3.9807   -0.7627   -0.8817 H   0  0  0  0  0  0  0  0  0  0  0  0
   -3.5309    1.8053   -0.0112 H   0  0  0  0  0  0  0  0  0  0  0  0
   -0.0262    4.9471   -0.9338 H   0  0  0  0  0  0  0  0  0  0  0  0
    0.0161    4.7929    0.8991 H   0  0  0  0  0  0  0  0  0  0  0  0
  1  2  2  0
  2  3  1  0
  3  4  2  0
  4  5  1  0
  5  6  2  0
  5  7  1  0
  7  8  1  0
  8  9  1  0
  9 10  1  0
 10 11  1  0
 11 12  1  0
 12 13  1  0
 13 14  2  0
 14 15  1  0
 15 16  2  0
 16 17  1  0
 15 18  1  0
 18 19  1  0
 19 20  1  0
  6  1  1  0
 17  8  1  0
 16  4  1  0
 17 12  2  0
 20 14  1  0
  1 21  1  0
  2 22  1  0
  3 23  1  0
  6 24  1  0
  7 25  1  0
  7 26  1  0
  8 27  1  6
  9 28  1  0
 10 29  1  0
 10 30  1  0
 11 31  1  0
 11 32  1  0
 13 33  1  0
 19 34  1  0
 19 35  1  0
M  END

     RDKit          3D

 35 37  0  0  0  0  0  0  0  0999 V2000
    4.1570   -1.1187   -0.7138 C   0  0  0  0  0  0  0  0  0  0  0  0
    2.8865   -1.2985   -0.3547 C   0  0  0  0  0  0  0  0  0  0  0  0
    2.2873   -2.5442    0.0665 C   0  0  0  0  0  0  0  0  0  0  0  0
    2.8797   -3.6510    0.1545 O   0  0  0  0  0  0  0  0  0  0  0  0
    0.9421   -2.3726    0.3229 O   0  0  0  0  0  0  0  0  0  0  0  0
    0.6022   -0.9886    0.2738 C   0  0  1  0  0  0  0  0  0  0  0  0
    1.7676   -0.3140   -0.5000 C   0  0  1  0  0  0  0  0  0  0  0  0
    2.0782    1.1175   -0.0236 C   0  0  0  0  0  0  0  0  0  0  0  0
    0.9156    1.8821    0.5842 C   0  0  0  0  0  0  0  0  0  0  0  0
   -0.4120    1.7484    0.3073 C   0  0  0  0  0  0  0  0  0  0  0  0
   -1.3555    2.6630    1.0671 C   0  0  0  0  0  0  0  0  0  0  0  0
   -0.9510    0.7827   -0.7796 C   0  0  2  0  0  0  0  0  0  0  0  0
   -2.4801    0.8559   -0.9844 C   0  0  0  0  0  0  0  0  0  0  0  0
   -3.0936   -0.1788   -0.0395 C   0  0  0  0  0  0  0  0  0  0  0  0
   -1.9750   -1.1210    0.2491 C   0  0  0  0  0  0  0  0  0  0  0  0
   -2.1428   -2.2374    0.9693 C   0  0  0  0  0  0  0  0  0  0  0  0
   -0.7197   -0.7200   -0.4648 C   0  0  2  0  0  0  0  0  0  0  0  0
    4.8728   -1.9265   -0.6314 H   0  0  0  0  0  0  0  0  0  0  0  0
    4.4907   -0.1610   -1.0922 H   0  0  0  0  0  0  0  0  0  0  0  0
    0.5495   -0.6224    1.3238 H   0  0  0  0  0  0  0  0  0  0  0  0
    1.5360   -0.2769   -1.5891 H   0  0  0  0  0  0  0  0  0  0  0  0
    2.8879    1.0845    0.7407 H   0  0  0  0  0  0  0  0  0  0  0  0
    2.4713    1.7052   -0.8826 H   0  0  0  0  0  0  0  0  0  0  0  0
    1.2193    2.6155    1.3279 H   0  0  0  0  0  0  0  0  0  0  0  0
   -1.7596    3.4373    0.3828 H   0  0  0  0  0  0  0  0  0  0  0  0
   -0.8559    3.1902    1.9079 H   0  0  0  0  0  0  0  0  0  0  0  0
   -2.1848    2.0830    1.5139 H   0  0  0  0  0  0  0  0  0  0  0  0
   -0.4576    1.0495   -1.7402 H   0  0  0  0  0  0  0  0  0  0  0  0
   -2.7085    0.5531   -2.0313 H   0  0  0  0  0  0  0  0  0  0  0  0
   -2.9194    1.8644   -0.8441 H   0  0  0  0  0  0  0  0  0  0  0  0
   -3.9369   -0.7085   -0.5338 H   0  0  0  0  0  0  0  0  0  0  0  0
   -3.4508    0.2914    0.8995 H   0  0  0  0  0  0  0  0  0  0  0  0
   -3.1077   -2.4620    1.4129 H   0  0  0  0  0  0  0  0  0  0  0  0
   -1.3350   -2.9398    1.1269 H   0  0  0  0  0  0  0  0  0  0  0  0
   -0.6978   -1.2821   -1.4263 H   0  0  0  0  0  0  0  0  0  0  0  0
  1  2  2  3
  2  3  1  0
  3  4  2  0
  3  5  1  0
  5  6  1  0
  6  7  1  0
  7  8  1  0
  8  9  1  0
  9 10  2  0
 10 11  1  0
 10 12  1  0
 12 13  1  0
 13 14  1  0
 14 15  1  0
 15 16  2  3
 15 17  1  0
  7  2  1  0
 17 12  1  0
 17  6  1  0
  1 18  1  0
  1 19  1  0
  6 20  1  1
  7 21  1  6
  8 22  1  0
  8 23  1  0
  9 24  1  0
 11 25  1  0
 11 26  1  0
 11 27  1  0
 12 28  1  6
 13 29  1  0
 13 30  1  0
 14 31  1  0
 14 32  1  0
 16 33  1  0
 16 34  1  0
 17 35  1  6
M  END

     RDKit          3D

 15 15  0  0  0  0  0  0  0  0999 V2000
   -1.6319    1.1896    1.4744 N   0  0  0  0  0  0  0  0  0  0  0  0
   -1.3699    0.2787    0.5890 C   0  0  0  0  0  0  0  0  0  0  0  0
   -2.4399   -0.5440    0.1159 N   0  0  0  0  0  0  0  0  0  0  0  0
    0.0094    0.0878    0.0747 C   0  0  0  0  0  0  0  0  0  0  0  0
    1.0997    0.9210    0.2770 C   0  0  0  0  0  0  0  0  0  0  0  0
    2.1615    0.3423   -0.3871 C   0  0  0  0  0  0  0  0  0  0  0  0
    1.7691   -0.7990   -0.9795 N   0  0  0  0  0  0  0  0  0  0  0  0
    0.4628   -0.9631   -0.7058 C   0  0  0  0  0  0  0  0  0  0  0  0
   -0.9088    1.8253    1.8762 H   0  0  0  0  0  0  0  0  0  0  0  0
   -2.2978   -1.2527   -0.6357 H   0  0  0  0  0  0  0  0  0  0  0  0
   -3.4038   -0.4226    0.4995 H   0  0  0  0  0  0  0  0  0  0  0  0
    1.1301    1.8488    0.8316 H   0  0  0  0  0  0  0  0  0  0  0  0
    3.1679    0.7368   -0.4349 H   0  0  0  0  0  0  0  0  0  0  0  0
    2.3680   -1.4399   -1.5453 H   0  0  0  0  0  0  0  0  0  0  0  0
   -0.1165   -1.8090   -1.0498 H   0  0  0  0  0  0  0  0  0  0  0  0
  1  2  2  3
  2  3  1  0
  2  4  1  0
  4  5  1  0
  5  6  2  0
  6  7  1  0
  7  8  1  0
  8  4  2  0
  1  9  1  0
  3 10  1  0
  3 11  1  0
  5 12  1  0
  6 13  1  0
  7 14  1  0
  8 15  1  0
M  END

     RDKit          3D

 30 31  0  0  0  0  0  0  0  0999 V2000
   -1.6778   -1.1549    2.9445 O   0  0  0  0  0  0  0  0  0  0  0  0
   -1.8690   -0.4986    1.7308 C   0  0  0  0  0  0  0  0  0  0  0  0
   -3.0173   -0.7622    0.9777 C   0  0  0  0  0  0  0  0  0  0  0  0
   -3.2198   -0.1202   -0.2482 C   0  0  0  0  0  0  0  0  0  0  0  0
   -4.3660   -0.3998   -0.9888 O   0  0  0  0  0  0  0  0  0  0  0  0
   -2.2690    0.7943   -0.7219 C   0  0  0  0  0  0  0  0  0  0  0  0
   -1.1180    1.0743    0.0318 C   0  0  0  0  0  0  0  0  0  0  0  0
   -0.0718    2.0187   -0.5038 C   0  0  0  0  0  0  0  0  0  0  0  0
    0.8584    1.3261   -1.5093 C   0  0  0  0  0  0  0  0  0  0  0  0
    1.6632    0.2278   -0.8617 C   0  0  0  0  0  0  0  0  0  0  0  0
    2.8105    0.5391   -0.1133 C   0  0  0  0  0  0  0  0  0  0  0  0
    3.5298   -0.4745    0.5273 C   0  0  0  0  0  0  0  0  0  0  0  0
    3.1054   -1.8026    0.4315 C   0  0  0  0  0  0  0  0  0  0  0  0
    1.9601   -2.1193   -0.3040 C   0  0  0  0  0  0  0  0  0  0  0  0
    1.2389   -1.1093   -0.9475 C   0  0  0  0  0  0  0  0  0  0  0  0
   -0.9204    0.4183    1.2581 C   0  0  0  0  0  0  0  0  0  0  0  0
   -0.8546   -0.9895    3.5120 H   0  0  0  0  0  0  0  0  0  0  0  0
   -3.7506   -1.4704    1.3428 H   0  0  0  0  0  0  0  0  0  0  0  0
   -4.5422    0.0471   -1.8809 H   0  0  0  0  0  0  0  0  0  0  0  0
   -2.4228    1.2815   -1.6770 H   0  0  0  0  0  0  0  0  0  0  0  0
    0.5278    2.4482    0.3289 H   0  0  0  0  0  0  0  0  0  0  0  0
   -0.5732    2.8728   -1.0089 H   0  0  0  0  0  0  0  0  0  0  0  0
    1.5509    2.0831   -1.9373 H   0  0  0  0  0  0  0  0  0  0  0  0
    0.2616    0.9234   -2.3573 H   0  0  0  0  0  0  0  0  0  0  0  0
    3.1427    1.5657   -0.0219 H   0  0  0  0  0  0  0  0  0  0  0  0
    4.4138   -0.2298    1.1018 H   0  0  0  0  0  0  0  0  0  0  0  0
    3.6617   -2.5855    0.9303 H   0  0  0  0  0  0  0  0  0  0  0  0
    1.6284   -3.1472   -0.3719 H   0  0  0  0  0  0  0  0  0  0  0  0
    0.3452   -1.3669   -1.5024 H   0  0  0  0  0  0  0  0  0  0  0  0
   -0.0262    0.6104    1.8387 H   0  0  0  0  0  0  0  0  0  0  0  0
  1  2  1  0
  2  3  2  0
  3  4  1  0
  4  5  1  0
  4  6  2  0
  6  7  1  0
  7  8  1  0
  8  9  1  0
  9 10  1  0
 10 11  2  0
 11 12  1  0
 12 13  2  0
 13 14  1  0
 14 15  2  0
  7 16  2  0
 16  2  1  0
 15 10  1  0
  1 17  1  0
  3 18  1  0
  5 19  1  0
  6 20  1  0
  8 21  1  0
  8 22  1  0
  9 23  1  0
  9 24  1  0
 11 25  1  0
 12 26  1  0
 13 27  1  0
 14 28  1  0
 15 29  1  0
 16 30  1  0
M  END

     RDKit          3D

 46 49  0  0  0  0  0  0  0  0999 V2000
    5.6580    0.5169   -1.1537 C   0  0  0  0  0  0  0  0  0  0  0  0
    4.9882    1.1133   -0.0479 O   0  0  0  0  0  0  0  0  0  0  0  0
    3.7731    0.6209    0.4445 C   0  0  0  0  0  0  0  0  0  0  0  0
    3.7317    0.0317    1.7139 C   0  0  0  0  0  0  0  0  0  0  0  0
    4.9878   -0.0958    2.5292 C   0  0  0  0  0  0  0  0  0  0  0  0
    2.5702   -0.5111    2.1698 N   0  0  0  0  0  0  0  0  0  0  0  0
    1.4081   -0.4381    1.4594 C   0  0  0  0  0  0  0  0  0  0  0  0
    0.2606   -1.0599    1.9635 C   0  0  0  0  0  0  0  0  0  0  0  0
   -0.9291   -1.0378    1.2498 C   0  0  0  0  0  0  0  0  0  0  0  0
   -1.0271   -0.3299    0.0467 C   0  0  0  0  0  0  0  0  0  0  0  0
    0.0964    0.3918   -0.4404 C   0  0  0  0  0  0  0  0  0  0  0  0
    1.3624    0.2476    0.2150 C   0  0  0  0  0  0  0  0  0  0  0  0
    2.5936    0.7257   -0.3100 C   0  0  0  0  0  0  0  0  0  0  0  0
    2.6655    1.2242   -1.4638 O   0  0  0  0  0  0  0  0  0  0  0  0
   -0.1416    1.3232   -1.6183 C   0  0  0  0  0  0  0  0  0  0  0  0
   -0.2242    0.5525   -2.9453 C   0  0  0  0  0  0  0  0  0  0  0  0
   -1.0822   -0.7264   -2.8723 C   0  0  0  0  0  0  0  0  0  0  0  0
   -2.3338   -0.5450   -2.0507 C   0  0  0  0  0  0  0  0  0  0  0  0
   -2.3188   -0.3803   -0.7095 C   0  0  0  0  0  0  0  0  0  0  0  0
   -3.6022   -0.2274    0.0279 C   0  0  0  0  0  0  0  0  0  0  0  0
   -3.7157    0.7368    1.0452 C   0  0  0  0  0  0  0  0  0  0  0  0
   -4.9161    0.8933    1.7434 C   0  0  0  0  0  0  0  0  0  0  0  0
   -6.0137    0.0854    1.4375 C   0  0  0  0  0  0  0  0  0  0  0  0
   -5.9135   -0.8793    0.4336 C   0  0  0  0  0  0  0  0  0  0  0  0
   -4.7150   -1.0376   -0.2693 C   0  0  0  0  0  0  0  0  0  0  0  0
    5.8906   -0.5474   -0.9257 H   0  0  0  0  0  0  0  0  0  0  0  0
    6.6088    1.0601   -1.3352 H   0  0  0  0  0  0  0  0  0  0  0  0
    5.0365    0.5717   -2.0729 H   0  0  0  0  0  0  0  0  0  0  0  0
    4.7537   -0.3486    3.5846 H   0  0  0  0  0  0  0  0  0  0  0  0
    5.5480    0.8630    2.5252 H   0  0  0  0  0  0  0  0  0  0  0  0
    5.6267   -0.8971    2.1024 H   0  0  0  0  0  0  0  0  0  0  0  0
    2.5729   -1.0006    3.0944 H   0  0  0  0  0  0  0  0  0  0  0  0
    0.2991   -1.6053    2.8986 H   0  0  0  0  0  0  0  0  0  0  0  0
   -1.7826   -1.5791    1.6410 H   0  0  0  0  0  0  0  0  0  0  0  0
   -1.1030    1.8614   -1.4625 H   0  0  0  0  0  0  0  0  0  0  0  0
    0.5869    2.1533   -1.6815 H   0  0  0  0  0  0  0  0  0  0  0  0
   -0.6425    1.2280   -3.7210 H   0  0  0  0  0  0  0  0  0  0  0  0
    0.8000    0.2747   -3.2715 H   0  0  0  0  0  0  0  0  0  0  0  0
   -1.3654   -1.0243   -3.9054 H   0  0  0  0  0  0  0  0  0  0  0  0
   -0.4806   -1.5591   -2.4472 H   0  0  0  0  0  0  0  0  0  0  0  0
   -3.2778   -0.5641   -2.5822 H   0  0  0  0  0  0  0  0  0  0  0  0
   -2.8784    1.3773    1.2905 H   0  0  0  0  0  0  0  0  0  0  0  0
   -4.9960    1.6444    2.5196 H   0  0  0  0  0  0  0  0  0  0  0  0
   -6.9416    0.2077    1.9798 H   0  0  0  0  0  0  0  0  0  0  0  0
   -6.7643   -1.5074    0.2016 H   0  0  0  0  0  0  0  0  0  0  0  0
   -4.6538   -1.8034   -1.0311 H   0  0  0  0  0  0  0  0  0  0  0  0
  1  2  1  0
  2  3  1  0
  3  4  2  0
  4  5  1  0
  4  6  1  0
  6  7  1  0
  7  8  2  0
  8  9  1  0
  9 10  2  0
 10 11  1  0
 11 12  2  0
 12 13  1  0
 13 14  2  0
 11 15  1  0
 15 16  1  0
 16 17  1  0
 17 18  1  0
 18 19  2  0
 19 20  1  0
 20 21  2  0
 21 22  1  0
 22 23  2  0
 23 24  1  0
 24 25  2  0
 13  3  1  0
 25 20  1  0
 12  7  1  0
 19 10  1  0
  1 26  1  0
  1 27  1  0
  1 28  1  0
  5 29  1  0
  5 30  1  0
  5 31  1  0
  6 32  1  0
  8 33  1  0
  9 34  1  0
 15 35  1  0
 15 36  1  0
 16 37  1  0
 16 38  1  0
 17 39  1  0
 17 40  1  0
 18 41  1  0
 21 42  1  0
 22 43  1  0
 23 44  1  0
 24 45  1  0
 25 46  1  0
M  END

     RDKit          3D

 37 40  0  0  0  0  0  0  0  0999 V2000
   -4.4503    2.0774    2.1810 C   0  0  0  0  0  0  0  0  0  0  0  0
   -4.1267    0.9722    1.3428 O   0  0  0  0  0  0  0  0  0  0  0  0
   -2.8238    0.6214    0.9549 C   0  0  0  0  0  0  0  0  0  0  0  0
   -1.6999    1.3729    1.3556 C   0  0  0  0  0  0  0  0  0  0  0  0
   -0.4122    0.9898    0.9579 C   0  0  0  0  0  0  0  0  0  0  0  0
    0.7465    1.6938    1.3452 C   0  0  0  0  0  0  0  0  0  0  0  0
    0.6637    2.7324    2.0532 O   0  0  0  0  0  0  0  0  0  0  0  0
    1.9505    1.2647    0.9716 O   0  0  0  0  0  0  0  0  0  0  0  0
    2.1351    0.1801    0.2220 C   0  0  0  0  0  0  0  0  0  0  0  0
    3.4312   -0.2375   -0.1306 C   0  0  0  0  0  0  0  0  0  0  0  0
    4.5528    0.4975    0.2698 O   0  0  0  0  0  0  0  0  0  0  0  0
    4.7903    1.8243   -0.1979 C   0  0  0  0  0  0  0  0  0  0  0  0
    3.6046   -1.4255   -0.8696 C   0  0  0  0  0  0  0  0  0  0  0  0
    4.8804   -1.8868   -1.1976 O   0  0  0  0  0  0  0  0  0  0  0  0
    2.4892   -2.1644   -1.2913 C   0  0  0  0  0  0  0  0  0  0  0  0
    1.1905   -1.7360   -0.9658 C   0  0  0  0  0  0  0  0  0  0  0  0
    0.0350   -2.4386   -1.3570 C   0  0  0  0  0  0  0  0  0  0  0  0
    0.1272   -3.4819   -2.0596 O   0  0  0  0  0  0  0  0  0  0  0  0
   -1.1721   -2.0019   -0.9930 O   0  0  0  0  0  0  0  0  0  0  0  0
   -1.3638   -0.9054   -0.2608 C   0  0  0  0  0  0  0  0  0  0  0  0
   -2.6592   -0.5007    0.1214 C   0  0  0  0  0  0  0  0  0  0  0  0
   -3.8097   -1.1885   -0.2914 O   0  0  0  0  0  0  0  0  0  0  0  0
   -4.0299   -1.6471   -1.6227 C   0  0  0  0  0  0  0  0  0  0  0  0
   -0.2539   -0.1532    0.1627 C   0  0  0  0  0  0  0  0  0  0  0  0
    1.0259   -0.5694   -0.2042 C   0  0  0  0  0  0  0  0  0  0  0  0
   -4.1277    3.0222    1.6961 H   0  0  0  0  0  0  0  0  0  0  0  0
   -3.9473    1.9675    3.1664 H   0  0  0  0  0  0  0  0  0  0  0  0
   -5.5510    2.1158    2.3428 H   0  0  0  0  0  0  0  0  0  0  0  0
   -1.8215    2.2438    1.9825 H   0  0  0  0  0  0  0  0  0  0  0  0
    3.9267    2.5006    0.0299 H   0  0  0  0  0  0  0  0  0  0  0  0
    5.6976    2.2211    0.3129 H   0  0  0  0  0  0  0  0  0  0  0  0
    4.9560    1.8016   -1.3079 H   0  0  0  0  0  0  0  0  0  0  0  0
    5.7203   -1.3926   -0.9229 H   0  0  0  0  0  0  0  0  0  0  0  0
    2.6440   -3.0692   -1.8708 H   0  0  0  0  0  0  0  0  0  0  0  0
   -3.3564   -2.4939   -1.8769 H   0  0  0  0  0  0  0  0  0  0  0  0
   -3.8834   -0.8050   -2.3345 H   0  0  0  0  0  0  0  0  0  0  0  0
   -5.0785   -2.0018   -1.7141 H   0  0  0  0  0  0  0  0  0  0  0  0
  1  2  1  0
  2  3  1  0
  3  4  2  0
  4  5  1  0
  5  6  1  0
  6  7  2  0
  6  8  1  0
  8  9  1  0
  9 10  1  0
 10 11  1  0
 11 12  1  0
 10 13  2  0
 13 14  1  0
 13 15  1  0
 15 16  2  0
 16 17  1  0
 17 18  2  0
 17 19  1  0
 19 20  1  0
 20 21  2  0
 21 22  1  0
 22 23  1  0
 20 24  1  0
 24 25  1  0
 21  3  1  0
 24  5  2  0
 25  9  2  0
 25 16  1  0
  1 26  1  0
  1 27  1  0
  1 28  1  0
  4 29  1  0
 12 30  1  0
 12 31  1  0
 12 32  1  0
 14 33  1  0
 15 34  1  0
 23 35  1  0
 23 36  1  0
 23 37  1  0
M  END

     RDKit          3D

 26 27  0  0  0  0  0  0  0  0999 V2000
    2.4840    1.4661    0.2304 C   0  0  0  0  0  0  0  0  0  0  0  0
    1.4256    0.4578   -0.1007 C   0  0  0  0  0  0  0  0  0  0  0  0
    1.3519   -0.1166   -1.3368 C   0  0  0  0  0  0  0  0  0  0  0  0
    0.2203   -1.1251   -1.6198 C   0  0  0  0  0  0  0  0  0  0  0  0
   -0.6497   -1.3322   -0.3317 C   0  0  1  0  0  0  0  0  0  0  0  0
    0.3534   -1.5313    0.8228 C   0  0  0  0  0  0  0  0  0  0  0  0
    0.3855    0.0057    0.9346 C   0  0  2  0  0  0  0  0  0  0  0  0
   -1.0265    0.0399    0.2924 C   0  0  0  0  0  0  0  0  0  0  0  0
   -1.3773    1.2192   -0.6580 C   0  0  0  0  0  0  0  0  0  0  0  0
   -2.1552   -0.0866    1.3467 C   0  0  0  0  0  0  0  0  0  0  0  0
    2.3876    2.3438   -0.4427 H   0  0  0  0  0  0  0  0  0  0  0  0
    2.3819    1.8104    1.2807 H   0  0  0  0  0  0  0  0  0  0  0  0
    3.4886    1.0119    0.0998 H   0  0  0  0  0  0  0  0  0  0  0  0
    2.0575    0.1449   -2.1193 H   0  0  0  0  0  0  0  0  0  0  0  0
   -0.4142   -0.7587   -2.4538 H   0  0  0  0  0  0  0  0  0  0  0  0
    0.6655   -2.0952   -1.9267 H   0  0  0  0  0  0  0  0  0  0  0  0
   -1.4592   -2.0903   -0.4049 H   0  0  0  0  0  0  0  0  0  0  0  0
    1.3172   -2.0238    0.5542 H   0  0  0  0  0  0  0  0  0  0  0  0
   -0.1005   -2.0205    1.7116 H   0  0  0  0  0  0  0  0  0  0  0  0
    0.4832    0.4168    1.9627 H   0  0  0  0  0  0  0  0  0  0  0  0
   -2.3351    1.0031   -1.1770 H   0  0  0  0  0  0  0  0  0  0  0  0
   -0.6276    1.4418   -1.4381 H   0  0  0  0  0  0  0  0  0  0  0  0
   -1.5044    2.1488   -0.0637 H   0  0  0  0  0  0  0  0  0  0  0  0
   -3.1264   -0.2717    0.8401 H   0  0  0  0  0  0  0  0  0  0  0  0
   -1.9911   -0.9133    2.0667 H   0  0  0  0  0  0  0  0  0  0  0  0
   -2.2349    0.8552    1.9304 H   0  0  0  0  0  0  0  0  0  0  0  0
  1  2  1  0
  2  3  2  0
  3  4  1  0
  4  5  1  0
  5  6  1  0
  6  7  1  0
  7  8  1  0
  8  9  1  0
  8 10  1  0
  7  2  1  0
  8  5  1  0
  1 11  1  0
  1 12  1  0
  1 13  1  0
  3 14  1  0
  4 15  1  0
  4 16  1  0
  5 17  1  6
  6 18  1  0
  6 19  1  0
  7 20  1  1
  9 21  1  0
  9 22  1  0
  9 23  1  0
 10 24  1  0
 10 25  1  0
 10 26  1  0
M  END

     RDKit          3D

 26 26  0  0  0  0  0  0  0  0999 V2000
    3.6606   -0.1186    0.5797 C   0  0  0  0  0  0  0  0  0  0  0  0
    2.2007    0.1945    0.4026 C   0  0  0  0  0  0  0  0  0  0  0  0
    1.2987   -0.1373    1.3479 C   0  0  0  0  0  0  0  0  0  0  0  0
   -0.1639    0.1760    1.1504 C   0  0  0  0  0  0  0  0  0  0  0  0
   -0.5542    0.0659   -0.3151 C   0  0  0  0  0  0  0  0  0  0  0  0
   -1.9309   -0.4342   -0.7226 C   0  0  0  0  0  0  0  0  0  0  0  0
   -3.0403    0.3498   -0.0117 C   0  0  0  0  0  0  0  0  0  0  0  0
   -2.0625   -1.9377   -0.4577 C   0  0  0  0  0  0  0  0  0  0  0  0
    0.3566    0.3916   -1.2582 C   0  0  0  0  0  0  0  0  0  0  0  0
    1.7331    0.8712   -0.8676 C   0  0  0  0  0  0  0  0  0  0  0  0
    3.9691   -0.8759   -0.1708 H   0  0  0  0  0  0  0  0  0  0  0  0
    3.8787   -0.5143    1.5949 H   0  0  0  0  0  0  0  0  0  0  0  0
    4.2581    0.8047    0.4279 H   0  0  0  0  0  0  0  0  0  0  0  0
    1.6106   -0.6324    2.2632 H   0  0  0  0  0  0  0  0  0  0  0  0
   -0.7713   -0.5037    1.7826 H   0  0  0  0  0  0  0  0  0  0  0  0
   -0.3486    1.2183    1.4864 H   0  0  0  0  0  0  0  0  0  0  0  0
   -2.0772   -0.2786   -1.8154 H   0  0  0  0  0  0  0  0  0  0  0  0
   -4.0336    0.0377   -0.3991 H   0  0  0  0  0  0  0  0  0  0  0  0
   -2.9196    1.4377   -0.2025 H   0  0  0  0  0  0  0  0  0  0  0  0
   -3.0191    0.1722    1.0844 H   0  0  0  0  0  0  0  0  0  0  0  0
   -3.0364   -2.3075   -0.8438 H   0  0  0  0  0  0  0  0  0  0  0  0
   -2.0064   -2.1612    0.6284 H   0  0  0  0  0  0  0  0  0  0  0  0
   -1.2511   -2.4886   -0.9800 H   0  0  0  0  0  0  0  0  0  0  0  0
    0.1149    0.3113   -2.3142 H   0  0  0  0  0  0  0  0  0  0  0  0
    1.6895    1.9668   -0.6907 H   0  0  0  0  0  0  0  0  0  0  0  0
    2.4444    0.6778   -1.6989 H   0  0  0  0  0  0  0  0  0  0  0  0
  1  2  1  0
  2  3  2  0
  3  4  1  0
  4  5  1  0
  5  6  1  0
  6  7  1  0
  6  8  1  0
  5  9  2  0
  9 10  1  0
 10  2  1  0
  1 11  1  0
  1 12  1  0
  1 13  1  0
  3 14  1  0
  4 15  1  0
  4 16  1  0
  6 17  1  0
  7 18  1  0
  7 19  1  0
  7 20  1  0
  8 21  1  0
  8 22  1  0
  8 23  1  0
  9 24  1  0
 10 25  1  0
 10 26  1  0
M  END

     RDKit          3D

 25 25  0  0  0  0  0  0  0  0999 V2000
    3.8650    0.0236   -0.0056 C   0  0  0  0  0  0  0  0  0  0  0  0
    2.3709   -0.1067   -0.0405 C   0  0  0  0  0  0  0  0  0  0  0  0
    1.7736   -1.3722   -0.0648 C   0  0  0  0  0  0  0  0  0  0  0  0
    0.3829   -1.4962   -0.0605 C   0  0  0  0  0  0  0  0  0  0  0  0
   -0.4433   -0.3574   -0.0189 C   0  0  0  0  0  0  0  0  0  0  0  0
   -1.9546   -0.5454   -0.0165 C   0  0  0  0  0  0  0  0  0  0  0  0
   -2.5913   -0.0257    1.2785 C   0  0  0  0  0  0  0  0  0  0  0  0
   -2.6087    0.0780   -1.2560 C   0  0  0  0  0  0  0  0  0  0  0  0
    0.1627    0.9209    0.0259 C   0  0  0  0  0  0  0  0  0  0  0  0
   -0.6154    2.0765    0.0779 O   0  0  0  0  0  0  0  0  0  0  0  0
    1.5611    1.0346    0.0207 C   0  0  0  0  0  0  0  0  0  0  0  0
    4.3454   -0.8227   -0.5414 H   0  0  0  0  0  0  0  0  0  0  0  0
    4.2106    0.0271    1.0492 H   0  0  0  0  0  0  0  0  0  0  0  0
    4.1875    0.9668   -0.4959 H   0  0  0  0  0  0  0  0  0  0  0  0
    2.3850   -2.2660   -0.0881 H   0  0  0  0  0  0  0  0  0  0  0  0
   -0.0483   -2.4892   -0.0868 H   0  0  0  0  0  0  0  0  0  0  0  0
   -2.1842   -1.6339   -0.0599 H   0  0  0  0  0  0  0  0  0  0  0  0
   -2.5270    1.0790    1.3520 H   0  0  0  0  0  0  0  0  0  0  0  0
   -3.6640   -0.3127    1.3128 H   0  0  0  0  0  0  0  0  0  0  0  0
   -2.0847   -0.4754    2.1591 H   0  0  0  0  0  0  0  0  0  0  0  0
   -2.1128   -0.2960   -2.1772 H   0  0  0  0  0  0  0  0  0  0  0  0
   -2.5475    1.1852   -1.2388 H   0  0  0  0  0  0  0  0  0  0  0  0
   -3.6813   -0.2081   -1.3003 H   0  0  0  0  0  0  0  0  0  0  0  0
   -0.1985    2.9995    0.1110 H   0  0  0  0  0  0  0  0  0  0  0  0
    2.0170    2.0165    0.0639 H   0  0  0  0  0  0  0  0  0  0  0  0
  1  2  1  0
  2  3  2  0
  3  4  1  0
  4  5  2  0
  5  6  1  0
  6  7  1  0
  6  8  1  0
  5  9  1  0
  9 10  1  0
  9 11  2  0
 11  2  1  0
  1 12  1  0
  1 13  1  0
  1 14  1  0
  3 15  1  0
  4 16  1  0
  6 17  1  0
  7 18  1  0
  7 19  1  0
  7 20  1  0
  8 21  1  0
  8 22  1  0
  8 23  1  0
 10 24  1  0
 11 25  1  0
M  END

     RDKit          3D

 29 29  0  0  0  0  0  0  0  0999 V2000
    3.8365    0.1187    0.3161 C   0  0  0  0  0  0  0  0  0  0  0  0
    2.4296   -0.0894   -0.1716 C   0  0  0  0  0  0  0  0  0  0  0  0
    1.7630   -1.2082    0.1500 C   0  0  0  0  0  0  0  0  0  0  0  0
    0.3264   -1.3624   -0.2654 C   0  0  0  0  0  0  0  0  0  0  0  0
   -0.4438   -0.0523    0.0404 C   0  0  2  0  0  0  0  0  0  0  0  0
   -1.9720   -0.1463   -0.3231 C   0  0  0  0  0  0  0  0  0  0  0  0
   -2.7013    1.1868   -0.0181 C   0  0  0  0  0  0  0  0  0  0  0  0
   -2.6598   -1.2422    0.5190 C   0  0  0  0  0  0  0  0  0  0  0  0
   -2.1402   -0.4959   -1.6786 O   0  0  0  0  0  0  0  0  0  0  0  0
    0.2790    1.1892   -0.5912 C   0  0  0  0  0  0  0  0  0  0  0  0
    1.7403    0.9433   -1.0301 C   0  0  0  0  0  0  0  0  0  0  0  0
    3.8509    0.1280    1.4264 H   0  0  0  0  0  0  0  0  0  0  0  0
    4.2507    1.0809   -0.0506 H   0  0  0  0  0  0  0  0  0  0  0  0
    4.4860   -0.7040   -0.0503 H   0  0  0  0  0  0  0  0  0  0  0  0
    2.2246   -1.9654    0.7784 H   0  0  0  0  0  0  0  0  0  0  0  0
   -0.0967   -2.2207    0.2943 H   0  0  0  0  0  0  0  0  0  0  0  0
    0.2815   -1.5889   -1.3528 H   0  0  0  0  0  0  0  0  0  0  0  0
   -0.3842    0.0864    1.1452 H   0  0  0  0  0  0  0  0  0  0  0  0
   -3.7887    1.0917   -0.2268 H   0  0  0  0  0  0  0  0  0  0  0  0
   -2.3250    2.0197   -0.6461 H   0  0  0  0  0  0  0  0  0  0  0  0
   -2.5695    1.4667    1.0494 H   0  0  0  0  0  0  0  0  0  0  0  0
   -2.3230   -2.2543    0.2148 H   0  0  0  0  0  0  0  0  0  0  0  0
   -2.4548   -1.1003    1.6021 H   0  0  0  0  0  0  0  0  0  0  0  0
   -3.7606   -1.2202    0.3661 H   0  0  0  0  0  0  0  0  0  0  0  0
   -1.8955    0.2815   -2.2425 H   0  0  0  0  0  0  0  0  0  0  0  0
   -0.2579    1.5666   -1.4837 H   0  0  0  0  0  0  0  0  0  0  0  0
    0.2680    2.0167    0.1519 H   0  0  0  0  0  0  0  0  0  0  0  0
    2.2959    1.9059   -1.0236 H   0  0  0  0  0  0  0  0  0  0  0  0
    1.7404    0.5683   -2.0771 H   0  0  0  0  0  0  0  0  0  0  0  0
  1  2  1  0
  2  3  2  0
  3  4  1  0
  4  5  1  0
  5  6  1  0
  6  7  1  0
  6  8  1  0
  6  9  1  0
  5 10  1  0
 10 11  1  0
 11  2  1  0
  1 12  1  0
  1 13  1  0
  1 14  1  0
  3 15  1  0
  4 16  1  0
  4 17  1  0
  5 18  1  1
  7 19  1  0
  7 20  1  0
  7 21  1  0
  8 22  1  0
  8 23  1  0
  8 24  1  0
  9 25  1  0
 10 26  1  0
 10 27  1  0
 11 28  1  0
 11 29  1  0
M  END

     RDKit          3D

 26 27  0  0  0  0  0  0  0  0999 V2000
   -0.2475    2.2480   -0.8467 C   0  0  0  0  0  0  0  0  0  0  0  0
   -0.0715    1.1149   -0.1569 C   0  0  0  0  0  0  0  0  0  0  0  0
    0.9039    0.9316    0.9749 C   0  0  2  0  0  0  0  0  0  0  0  0
    2.0703    0.0787    0.4455 C   0  0  0  0  0  0  0  0  0  0  0  0
    1.4409   -1.3248    0.3149 C   0  0  0  0  0  0  0  0  0  0  0  0
   -0.0415   -1.0734    0.6831 C   0  0  1  0  0  0  0  0  0  0  0  0
    0.1547   -0.0751    1.8193 C   0  0  0  0  0  0  0  0  0  0  0  0
   -0.7576   -0.2061   -0.4113 C   0  0  0  0  0  0  0  0  0  0  0  0
   -2.2771   -0.1139   -0.1479 C   0  0  0  0  0  0  0  0  0  0  0  0
   -0.5269   -0.7050   -1.8563 C   0  0  0  0  0  0  0  0  0  0  0  0
   -0.9572    2.2907   -1.6662 H   0  0  0  0  0  0  0  0  0  0  0  0
    0.3190    3.1383   -0.5938 H   0  0  0  0  0  0  0  0  0  0  0  0
    1.1966    1.8620    1.5073 H   0  0  0  0  0  0  0  0  0  0  0  0
    2.9057    0.0662    1.1795 H   0  0  0  0  0  0  0  0  0  0  0  0
    2.4445    0.4534   -0.5330 H   0  0  0  0  0  0  0  0  0  0  0  0
    1.5870   -1.7699   -0.6894 H   0  0  0  0  0  0  0  0  0  0  0  0
    1.8990   -2.0176    1.0557 H   0  0  0  0  0  0  0  0  0  0  0  0
   -0.5883   -1.9961    0.9746 H   0  0  0  0  0  0  0  0  0  0  0  0
    0.7680   -0.4783    2.6596 H   0  0  0  0  0  0  0  0  0  0  0  0
   -0.7893    0.3311    2.2424 H   0  0  0  0  0  0  0  0  0  0  0  0
   -2.5085    0.3055    0.8514 H   0  0  0  0  0  0  0  0  0  0  0  0
   -2.7642    0.5422   -0.9009 H   0  0  0  0  0  0  0  0  0  0  0  0
   -2.7360   -1.1234   -0.2160 H   0  0  0  0  0  0  0  0  0  0  0  0
   -0.7478   -1.7914   -1.9258 H   0  0  0  0  0  0  0  0  0  0  0  0
   -1.1899   -0.1679   -2.5680 H   0  0  0  0  0  0  0  0  0  0  0  0
    0.5136   -0.5198   -2.1960 H   0  0  0  0  0  0  0  0  0  0  0  0
  1  2  2  3
  2  3  1  0
  3  4  1  0
  4  5  1  0
  5  6  1  0
  6  7  1  0
  6  8  1  0
  8  9  1  0
  8 10  1  0
  8  2  1  0
  7  3  1  0
  1 11  1  0
  1 12  1  0
  3 13  1  1
  4 14  1  0
  4 15  1  0
  5 16  1  0
  5 17  1  0
  6 18  1  1
  7 19  1  0
  7 20  1  0
  9 21  1  0
  9 22  1  0
  9 23  1  0
 10 24  1  0
 10 25  1  0
 10 26  1  0
M  END

     RDKit          3D

 24 24  0  0  0  0  0  0  0  0999 V2000
    3.8049    0.0319    0.5021 C   0  0  0  0  0  0  0  0  0  0  0  0
    2.3090    0.0074    0.3935 C   0  0  0  0  0  0  0  0  0  0  0  0
    1.5399   -0.6375    1.3725 C   0  0  0  0  0  0  0  0  0  0  0  0
    0.1481   -0.6933    1.2537 C   0  0  0  0  0  0  0  0  0  0  0  0
   -0.4978   -0.1158    0.1467 C   0  0  0  0  0  0  0  0  0  0  0  0
   -2.0090   -0.1845    0.0289 C   0  0  0  0  0  0  0  0  0  0  0  0
   -2.4306   -0.9807   -1.2117 C   0  0  0  0  0  0  0  0  0  0  0  0
   -2.6274    1.2185    0.0207 C   0  0  0  0  0  0  0  0  0  0  0  0
    0.2808    0.5140   -0.8428 C   0  0  0  0  0  0  0  0  0  0  0  0
    1.6722    0.5688   -0.7223 C   0  0  0  0  0  0  0  0  0  0  0  0
    4.1203    0.0434    1.5672 H   0  0  0  0  0  0  0  0  0  0  0  0
    4.2185    0.9391    0.0122 H   0  0  0  0  0  0  0  0  0  0  0  0
    4.2255   -0.8694    0.0095 H   0  0  0  0  0  0  0  0  0  0  0  0
    2.0173   -1.0972    2.2291 H   0  0  0  0  0  0  0  0  0  0  0  0
   -0.4238   -1.1918    2.0264 H   0  0  0  0  0  0  0  0  0  0  0  0
   -2.4251   -0.7170    0.9134 H   0  0  0  0  0  0  0  0  0  0  0  0
   -2.1165   -0.4660   -2.1444 H   0  0  0  0  0  0  0  0  0  0  0  0
   -3.5350   -1.0999   -1.2295 H   0  0  0  0  0  0  0  0  0  0  0  0
   -1.9729   -1.9928   -1.1879 H   0  0  0  0  0  0  0  0  0  0  0  0
   -3.7359    1.1451    0.0308 H   0  0  0  0  0  0  0  0  0  0  0  0
   -2.3203    1.7872   -0.8825 H   0  0  0  0  0  0  0  0  0  0  0  0
   -2.3089    1.7801    0.9249 H   0  0  0  0  0  0  0  0  0  0  0  0
   -0.1864    0.9604   -1.7109 H   0  0  0  0  0  0  0  0  0  0  0  0
    2.2528    1.0501   -1.4997 H   0  0  0  0  0  0  0  0  0  0  0  0
  1  2  1  0
  2  3  2  0
  3  4  1  0
  4  5  2  0
  5  6  1  0
  6  7  1  0
  6  8  1  0
  5  9  1  0
  9 10  2  0
 10  2  1  0
  1 11  1  0
  1 12  1  0
  1 13  1  0
  3 14  1  0
  4 15  1  0
  6 16  1  0
  7 17  1  0
  7 18  1  0
  7 19  1  0
  8 20  1  0
  8 21  1  0
  8 22  1  0
  9 23  1  0
 10 24  1  0
M  END

     RDKit          3D

 39 41  0  0  0  0  0  0  0  0999 V2000
    2.7234    2.1046    0.9179 C   0  0  0  0  0  0  0  0  0  0  0  0
    2.1486    0.9833    0.1047 C   0  0  0  0  0  0  0  0  0  0  0  0
    2.6810    0.6076   -1.0892 C   0  0  0  0  0  0  0  0  0  0  0  0
    2.0251   -0.5426   -1.8621 C   0  0  0  0  0  0  0  0  0  0  0  0
    0.7619   -1.0615   -1.0985 C   0  0  2  0  0  0  0  0  0  0  0  0
   -0.0568    0.1750   -0.6603 C   0  0  1  0  0  0  0  0  0  0  0  0
   -1.5053   -0.2538   -0.2602 C   0  0  2  0  0  0  0  0  0  0  0  0
   -2.4273    0.9670    0.0613 C   0  0  0  0  0  0  0  0  0  0  0  0
   -2.5064    1.9670   -1.1080 C   0  0  0  0  0  0  0  0  0  0  0  0
   -3.8554    0.5090    0.4149 C   0  0  0  0  0  0  0  0  0  0  0  0
   -1.4627   -1.2652    0.9332 C   0  0  0  0  0  0  0  0  0  0  0  0
   -0.1302   -2.0488    1.0396 C   0  0  0  0  0  0  0  0  0  0  0  0
    1.0625   -1.2797    0.4024 C   0  0  1  0  0  0  0  0  0  0  0  0
    2.4107   -1.9235    0.8051 C   0  0  0  0  0  0  0  0  0  0  0  0
    0.8859    0.2521    0.5649 C   0  0  1  0  0  0  0  0  0  0  0  0
    2.8918    1.7568    1.9584 H   0  0  0  0  0  0  0  0  0  0  0  0
    2.0086    2.9535    0.9305 H   0  0  0  0  0  0  0  0  0  0  0  0
    3.6917    2.4550    0.5009 H   0  0  0  0  0  0  0  0  0  0  0  0
    3.5636    1.0953   -1.4912 H   0  0  0  0  0  0  0  0  0  0  0  0
    1.7245   -0.1797   -2.8677 H   0  0  0  0  0  0  0  0  0  0  0  0
    2.7535   -1.3696   -1.9965 H   0  0  0  0  0  0  0  0  0  0  0  0
    0.2030   -1.8687   -1.6223 H   0  0  0  0  0  0  0  0  0  0  0  0
   -0.0053    1.0166   -1.3839 H   0  0  0  0  0  0  0  0  0  0  0  0
   -1.9433   -0.7829   -1.1367 H   0  0  0  0  0  0  0  0  0  0  0  0
   -2.0147    1.5083    0.9416 H   0  0  0  0  0  0  0  0  0  0  0  0
   -1.5688    2.5529   -1.1924 H   0  0  0  0  0  0  0  0  0  0  0  0
   -3.3177    2.7074   -0.9400 H   0  0  0  0  0  0  0  0  0  0  0  0
   -2.7037    1.4388   -2.0654 H   0  0  0  0  0  0  0  0  0  0  0  0
   -4.5082    1.3864    0.6108 H   0  0  0  0  0  0  0  0  0  0  0  0
   -4.2927   -0.0819   -0.4184 H   0  0  0  0  0  0  0  0  0  0  0  0
   -3.8627   -0.1075    1.3369 H   0  0  0  0  0  0  0  0  0  0  0  0
   -2.3076   -1.9833    0.8522 H   0  0  0  0  0  0  0  0  0  0  0  0
   -1.5950   -0.7130    1.8901 H   0  0  0  0  0  0  0  0  0  0  0  0
   -0.2404   -3.0328    0.5329 H   0  0  0  0  0  0  0  0  0  0  0  0
    0.0785   -2.2530    2.1128 H   0  0  0  0  0  0  0  0  0  0  0  0
    2.4317   -2.9802    0.4649 H   0  0  0  0  0  0  0  0  0  0  0  0
    2.5128   -1.9068    1.9105 H   0  0  0  0  0  0  0  0  0  0  0  0
    3.3003   -1.4168    0.3870 H   0  0  0  0  0  0  0  0  0  0  0  0
    0.4448    0.6148    1.5193 H   0  0  0  0  0  0  0  0  0  0  0  0
  1  2  1  0
  2  3  2  0
  3  4  1  0
  4  5  1  0
  5  6  1  0
  6  7  1  0
  7  8  1  0
  8  9  1  0
  8 10  1  0
  7 11  1  0
 11 12  1  0
 12 13  1  0
 13 14  1  6
 13 15  1  0
 15  2  1  0
 13  5  1  0
 15  6  1  0
  1 16  1  0
  1 17  1  0
  1 18  1  0
  3 19  1  0
  4 20  1  0
  4 21  1  0
  5 22  1  6
  6 23  1  6
  7 24  1  6
  8 25  1  0
  9 26  1  0
  9 27  1  0
  9 28  1  0
 10 29  1  0
 10 30  1  0
 10 31  1  0
 11 32  1  0
 11 33  1  0
 12 34  1  0
 12 35  1  0
 14 36  1  0
 14 37  1  0
 14 38  1  0
 15 39  1  1
M  END

     RDKit          3D

 28 29  0  0  0  0  0  0  0  0999 V2000
    4.6203   -0.1562   -0.2190 C   0  0  0  0  0  0  0  0  0  0  0  0
    3.8845   -1.3144   -0.4848 C   0  0  0  0  0  0  0  0  0  0  0  0
    2.5082   -1.3425   -0.2389 C   0  0  0  0  0  0  0  0  0  0  0  0
    1.8601   -0.2114    0.2853 C   0  0  0  0  0  0  0  0  0  0  0  0
    0.3732   -0.2279    0.5176 C   0  0  0  0  0  0  0  0  0  0  0  0
   -0.3732    0.2279   -0.7395 C   0  0  0  0  0  0  0  0  0  0  0  0
   -1.8601    0.2114   -0.5072 C   0  0  0  0  0  0  0  0  0  0  0  0
   -2.5082    1.3425    0.0170 C   0  0  0  0  0  0  0  0  0  0  0  0
   -3.8845    1.3144    0.2629 C   0  0  0  0  0  0  0  0  0  0  0  0
   -4.6203    0.1562   -0.0029 C   0  0  0  0  0  0  0  0  0  0  0  0
   -3.9801   -0.9775   -0.5113 C   0  0  0  0  0  0  0  0  0  0  0  0
   -2.6039   -0.9537   -0.7587 C   0  0  0  0  0  0  0  0  0  0  0  0
    2.6039    0.9537    0.5368 C   0  0  0  0  0  0  0  0  0  0  0  0
    3.9801    0.9775    0.2894 C   0  0  0  0  0  0  0  0  0  0  0  0
    5.6852   -0.1357   -0.4111 H   0  0  0  0  0  0  0  0  0  0  0  0
    4.3802   -2.1895   -0.8848 H   0  0  0  0  0  0  0  0  0  0  0  0
    1.9478   -2.2430   -0.4579 H   0  0  0  0  0  0  0  0  0  0  0  0
    0.0474   -1.2547    0.7957 H   0  0  0  0  0  0  0  0  0  0  0  0
    0.1182    0.4417    1.3688 H   0  0  0  0  0  0  0  0  0  0  0  0
   -0.0474    1.2548   -1.0176 H   0  0  0  0  0  0  0  0  0  0  0  0
   -0.1181   -0.4417   -1.5906 H   0  0  0  0  0  0  0  0  0  0  0  0
   -1.9478    2.2430    0.2360 H   0  0  0  0  0  0  0  0  0  0  0  0
   -4.3802    2.1895    0.6629 H   0  0  0  0  0  0  0  0  0  0  0  0
   -5.6852    0.1356    0.1892 H   0  0  0  0  0  0  0  0  0  0  0  0
   -4.5497   -1.8760   -0.7105 H   0  0  0  0  0  0  0  0  0  0  0  0
   -2.1181   -1.8418   -1.1439 H   0  0  0  0  0  0  0  0  0  0  0  0
    2.1182    1.8418    0.9219 H   0  0  0  0  0  0  0  0  0  0  0  0
    4.5497    1.8760    0.4885 H   0  0  0  0  0  0  0  0  0  0  0  0
  1  2  2  0
  2  3  1  0
  3  4  2  0
  4  5  1  0
  5  6  1  0
  6  7  1  0
  7  8  2  0
  8  9  1  0
  9 10  2  0
 10 11  1  0
 11 12  2  0
  4 13  1  0
 13 14  2  0
 14  1  1  0
 12  7  1  0
  1 15  1  0
  2 16  1  0
  3 17  1  0
  5 18  1  0
  5 19  1  0
  6 20  1  0
  6 21  1  0
  8 22  1  0
  9 23  1  0
 10 24  1  0
 11 25  1  0
 12 26  1  0
 13 27  1  0
 14 28  1  0
M  END

     RDKit          3D

 30 31  0  0  0  0  0  0  0  0999 V2000
   -2.7003    1.4609    0.2746 C   0  0  0  0  0  0  0  0  0  0  0  0
   -1.5800    0.4406   -0.0487 C   0  0  0  0  0  0  0  0  0  0  0  0
   -1.5346    0.2383   -1.5897 C   0  0  0  0  0  0  0  0  0  0  0  0
   -1.6464   -0.8124    0.8666 C   0  0  1  0  0  0  0  0  0  0  0  0
   -0.7454   -1.9557    0.2890 C   0  0  0  0  0  0  0  0  0  0  0  0
    0.6413   -1.3977   -0.0895 C   0  0  0  0  0  0  0  0  0  0  0  0
    0.8883   -0.0593    0.0851 C   0  0  0  0  0  0  0  0  0  0  0  0
    2.1764    0.6401   -0.2977 C   0  0  0  0  0  0  0  0  0  0  0  0
    3.3073   -0.2849   -0.7654 C   0  0  0  0  0  0  0  0  0  0  0  0
    4.4530    0.4665   -1.0614 O   0  0  0  0  0  0  0  0  0  0  0  0
   -0.2563    0.7665    0.6908 C   0  0  2  0  0  0  0  0  0  0  0  0
   -0.7656   -0.0626    1.8855 C   0  0  0  0  0  0  0  0  0  0  0  0
   -2.8011    1.6713    1.3581 H   0  0  0  0  0  0  0  0  0  0  0  0
   -2.4923    2.4254   -0.2351 H   0  0  0  0  0  0  0  0  0  0  0  0
   -3.6776    1.0745   -0.0846 H   0  0  0  0  0  0  0  0  0  0  0  0
   -1.3646    1.2171   -2.0867 H   0  0  0  0  0  0  0  0  0  0  0  0
   -0.7483   -0.4440   -1.9586 H   0  0  0  0  0  0  0  0  0  0  0  0
   -2.5085   -0.1658   -1.9384 H   0  0  0  0  0  0  0  0  0  0  0  0
   -2.6518   -1.1177    1.2287 H   0  0  0  0  0  0  0  0  0  0  0  0
   -1.2286   -2.4067   -0.6029 H   0  0  0  0  0  0  0  0  0  0  0  0
   -0.6217   -2.7524    1.0530 H   0  0  0  0  0  0  0  0  0  0  0  0
    1.3762   -2.0726   -0.5117 H   0  0  0  0  0  0  0  0  0  0  0  0
    2.5314    1.2147    0.5849 H   0  0  0  0  0  0  0  0  0  0  0  0
    1.9508    1.3682   -1.1066 H   0  0  0  0  0  0  0  0  0  0  0  0
    3.5380   -1.0424    0.0186 H   0  0  0  0  0  0  0  0  0  0  0  0
    2.9943   -0.8154   -1.6897 H   0  0  0  0  0  0  0  0  0  0  0  0
    4.8703    0.7041   -0.1925 H   0  0  0  0  0  0  0  0  0  0  0  0
   -0.0454    1.8383    0.8972 H   0  0  0  0  0  0  0  0  0  0  0  0
   -0.0012   -0.6757    2.4180 H   0  0  0  0  0  0  0  0  0  0  0  0
   -1.3574    0.5388    2.6090 H   0  0  0  0  0  0  0  0  0  0  0  0
  1  2  1  0
  2  3  1  0
  2  4  1  0
  4  5  1  0
  5  6  1  0
  6  7  2  0
  7  8  1  0
  8  9  1  0
  9 10  1  0
  7 11  1  0
 11 12  1  0
 11  2  1  0
 12  4  1  0
  1 13  1  0
  1 14  1  0
  1 15  1  0
  3 16  1  0
  3 17  1  0
  3 18  1  0
  4 19  1  1
  5 20  1  0
  5 21  1  0
  6 22  1  0
  8 23  1  0
  8 24  1  0
  9 25  1  0
  9 26  1  0
 10 27  1  0
 11 28  1  1
 12 29  1  0
 12 30  1  0
M  END

     RDKit          3D

 38 37  0  0  0  0  0  0  0  0999 V2000
   -5.7836   -0.3019    1.1231 C   0  0  0  0  0  0  0  0  0  0  0  0
   -5.1819    0.4317   -0.0767 C   0  0  0  0  0  0  0  0  0  0  0  0
   -3.8342   -0.1578   -0.5223 C   0  0  0  0  0  0  0  0  0  0  0  0
   -2.6953    0.1561    0.4670 C   0  0  0  0  0  0  0  0  0  0  0  0
   -1.3532   -0.4597    0.0329 C   0  0  0  0  0  0  0  0  0  0  0  0
   -0.6654    0.3440   -1.0847 C   0  0  0  0  0  0  0  0  0  0  0  0
    0.5644   -0.3795   -1.6646 C   0  0  0  0  0  0  0  0  0  0  0  0
    1.7312   -0.5728   -0.6765 C   0  0  0  0  0  0  0  0  0  0  0  0
    2.4117    0.7570   -0.2983 C   0  0  0  0  0  0  0  0  0  0  0  0
    3.6145    0.5623    0.6401 C   0  0  0  0  0  0  0  0  0  0  0  0
    4.8057   -0.1203   -0.0526 C   0  0  0  0  0  0  0  0  0  0  0  0
    6.0389   -0.0694    0.7971 C   0  0  0  0  0  0  0  0  0  0  0  0
    7.1645    0.0945    0.2577 O   0  0  0  0  0  0  0  0  0  0  0  0
    5.9498   -0.2477    2.1769 O   0  0  0  0  0  0  0  0  0  0  0  0
   -6.8154    0.0647    1.2975 H   0  0  0  0  0  0  0  0  0  0  0  0
   -5.8251   -1.3942    0.9339 H   0  0  0  0  0  0  0  0  0  0  0  0
   -5.1901   -0.1101    2.0390 H   0  0  0  0  0  0  0  0  0  0  0  0
   -5.0662    1.5106    0.1670 H   0  0  0  0  0  0  0  0  0  0  0  0
   -5.8957    0.3493   -0.9269 H   0  0  0  0  0  0  0  0  0  0  0  0
   -3.9353   -1.2579   -0.6542 H   0  0  0  0  0  0  0  0  0  0  0  0
   -3.5942    0.2788   -1.5154 H   0  0  0  0  0  0  0  0  0  0  0  0
   -2.9517   -0.2696    1.4605 H   0  0  0  0  0  0  0  0  0  0  0  0
   -2.5879    1.2564    0.5927 H   0  0  0  0  0  0  0  0  0  0  0  0
   -0.6865   -0.4790    0.9204 H   0  0  0  0  0  0  0  0  0  0  0  0
   -1.5094   -1.5115   -0.2925 H   0  0  0  0  0  0  0  0  0  0  0  0
   -1.3776    0.4987   -1.9216 H   0  0  0  0  0  0  0  0  0  0  0  0
   -0.3861    1.3513   -0.7122 H   0  0  0  0  0  0  0  0  0  0  0  0
    0.9280    0.1907   -2.5473 H   0  0  0  0  0  0  0  0  0  0  0  0
    0.2460   -1.3767   -2.0400 H   0  0  0  0  0  0  0  0  0  0  0  0
    1.3913   -1.1038    0.2376 H   0  0  0  0  0  0  0  0  0  0  0  0
    2.4716   -1.2366   -1.1736 H   0  0  0  0  0  0  0  0  0  0  0  0
    2.7335    1.2994   -1.2149 H   0  0  0  0  0  0  0  0  0  0  0  0
    1.6815    1.4098    0.2273 H   0  0  0  0  0  0  0  0  0  0  0  0
    3.3036   -0.0305    1.5305 H   0  0  0  0  0  0  0  0  0  0  0  0
    3.9328    1.5689    0.9940 H   0  0  0  0  0  0  0  0  0  0  0  0
    4.5753   -1.1874   -0.2526 H   0  0  0  0  0  0  0  0  0  0  0  0
    5.0099    0.3851   -1.0225 H   0  0  0  0  0  0  0  0  0  0  0  0
    6.7805   -0.2428    2.7541 H   0  0  0  0  0  0  0  0  0  0  0  0
  1  2  1  0
  2  3  1  0
  3  4  1  0
  4  5  1  0
  5  6  1  0
  6  7  1  0
  7  8  1  0
  8  9  1  0
  9 10  1  0
 10 11  1  0
 11 12  1  0
 12 13  2  0
 12 14  1  0
  1 15  1  0
  1 16  1  0
  1 17  1  0
  2 18  1  0
  2 19  1  0
  3 20  1  0
  3 21  1  0
  4 22  1  0
  4 23  1  0
  5 24  1  0
  5 25  1  0
  6 26  1  0
  6 27  1  0
  7 28  1  0
  7 29  1  0
  8 30  1  0
  8 31  1  0
  9 32  1  0
  9 33  1  0
 10 34  1  0
 10 35  1  0
 11 36  1  0
 11 37  1  0
 14 38  1  0
M  END

     RDKit          3D

 26 25  0  0  0  0  0  0  0  0999 V2000
    3.6289    0.5158   -0.8284 C   0  0  0  0  0  0  0  0  0  0  0  0
    3.3550    0.3133    0.4608 C   0  0  0  0  0  0  0  0  0  0  0  0
    2.0346   -0.1423    0.9687 C   0  0  0  0  0  0  0  0  0  0  0  0
    1.8249   -0.1551    2.2896 C   0  0  0  0  0  0  0  0  0  0  0  0
    0.9077   -0.5437    0.0423 C   0  0  0  0  0  0  0  0  0  0  0  0
    0.0845    0.6799   -0.3752 C   0  0  0  0  0  0  0  0  0  0  0  0
   -1.0423    0.2778   -1.2935 C   0  0  0  0  0  0  0  0  0  0  0  0
   -2.2704   -0.1012   -0.8758 C   0  0  0  0  0  0  0  0  0  0  0  0
   -2.6535   -0.1037    0.5857 C   0  0  0  0  0  0  0  0  0  0  0  0
   -3.2849   -0.5156   -1.9102 C   0  0  0  0  0  0  0  0  0  0  0  0
    4.6154    0.8530   -1.1190 H   0  0  0  0  0  0  0  0  0  0  0  0
    2.8961    0.3684   -1.6084 H   0  0  0  0  0  0  0  0  0  0  0  0
    4.1469    0.5080    1.1752 H   0  0  0  0  0  0  0  0  0  0  0  0
    0.8691   -0.4572    2.7003 H   0  0  0  0  0  0  0  0  0  0  0  0
    2.6013    0.1416    2.9843 H   0  0  0  0  0  0  0  0  0  0  0  0
    0.2497   -1.2853    0.5455 H   0  0  0  0  0  0  0  0  0  0  0  0
    1.3114   -1.0593   -0.8547 H   0  0  0  0  0  0  0  0  0  0  0  0
   -0.2986    1.2161    0.5188 H   0  0  0  0  0  0  0  0  0  0  0  0
    0.7391    1.3911   -0.9228 H   0  0  0  0  0  0  0  0  0  0  0  0
   -0.8248    0.2719   -2.3590 H   0  0  0  0  0  0  0  0  0  0  0  0
   -2.6012    0.9278    0.9924 H   0  0  0  0  0  0  0  0  0  0  0  0
   -1.9744   -0.7642    1.1622 H   0  0  0  0  0  0  0  0  0  0  0  0
   -3.6894   -0.4734    0.7337 H   0  0  0  0  0  0  0  0  0  0  0  0
   -3.4657    0.3228   -2.6159 H   0  0  0  0  0  0  0  0  0  0  0  0
   -2.9053   -1.3919   -2.4774 H   0  0  0  0  0  0  0  0  0  0  0  0
   -4.2544   -0.7946   -1.4477 H   0  0  0  0  0  0  0  0  0  0  0  0
  1  2  2  3
  2  3  1  0
  3  4  2  3
  3  5  1  0
  5  6  1  0
  6  7  1  0
  7  8  2  3
  8  9  1  0
  8 10  1  0
  1 11  1  0
  1 12  1  0
  2 13  1  0
  4 14  1  0
  4 15  1  0
  5 16  1  0
  5 17  1  0
  6 18  1  0
  6 19  1  0
  7 20  1  0
  9 21  1  0
  9 22  1  0
  9 23  1  0
 10 24  1  0
 10 25  1  0
 10 26  1  0
M  END

     RDKit          3D

 26 25  0  0  0  0  0  0  0  0999 V2000
    3.9088    0.8916   -0.8631 C   0  0  0  0  0  0  0  0  0  0  0  0
    2.9000   -0.2363   -1.0733 C   0  0  0  0  0  0  0  0  0  0  0  0
    1.6802   -0.0629   -0.1606 C   0  0  0  0  0  0  0  0  0  0  0  0
    0.6841   -1.2168   -0.3488 C   0  0  0  0  0  0  0  0  0  0  0  0
   -0.5354   -1.0941    0.5797 C   0  0  0  0  0  0  0  0  0  0  0  0
   -1.5487   -0.0528    0.0827 C   0  0  0  0  0  0  0  0  0  0  0  0
   -2.7572    0.0269    1.0200 C   0  0  0  0  0  0  0  0  0  0  0  0
   -3.7429    1.0359    0.5219 C   0  0  0  0  0  0  0  0  0  0  0  0
   -3.5477    2.2644    0.7259 O   0  0  0  0  0  0  0  0  0  0  0  0
   -4.8591    0.6177   -0.1993 O   0  0  0  0  0  0  0  0  0  0  0  0
    4.2800    0.8865    0.1862 H   0  0  0  0  0  0  0  0  0  0  0  0
    3.4411    1.8765   -1.0822 H   0  0  0  0  0  0  0  0  0  0  0  0
    4.7737    0.7494   -1.5470 H   0  0  0  0  0  0  0  0  0  0  0  0
    3.3963   -1.2081   -0.8575 H   0  0  0  0  0  0  0  0  0  0  0  0
    2.5742   -0.2344   -2.1371 H   0  0  0  0  0  0  0  0  0  0  0  0
    2.0153   -0.0382    0.9001 H   0  0  0  0  0  0  0  0  0  0  0  0
    1.1892    0.9053   -0.3985 H   0  0  0  0  0  0  0  0  0  0  0  0
    0.3512   -1.2654   -1.4085 H   0  0  0  0  0  0  0  0  0  0  0  0
    1.2024   -2.1727   -0.1151 H   0  0  0  0  0  0  0  0  0  0  0  0
   -1.0389   -2.0844    0.6262 H   0  0  0  0  0  0  0  0  0  0  0  0
   -0.2014   -0.8400    1.6097 H   0  0  0  0  0  0  0  0  0  0  0  0
   -1.0687    0.9466    0.0306 H   0  0  0  0  0  0  0  0  0  0  0  0
   -1.8936   -0.3327   -0.9377 H   0  0  0  0  0  0  0  0  0  0  0  0
   -2.4244    0.3158    2.0411 H   0  0  0  0  0  0  0  0  0  0  0  0
   -3.2524   -0.9663    1.0839 H   0  0  0  0  0  0  0  0  0  0  0  0
   -5.5261    1.2884   -0.5626 H   0  0  0  0  0  0  0  0  0  0  0  0
  1  2  1  0
  2  3  1  0
  3  4  1  0
  4  5  1  0
  5  6  1  0
  6  7  1  0
  7  8  1  0
  8  9  2  0
  8 10  1  0
  1 11  1  0
  1 12  1  0
  1 13  1  0
  2 14  1  0
  2 15  1  0
  3 16  1  0
  3 17  1  0
  4 18  1  0
  4 19  1  0
  5 20  1  0
  5 21  1  0
  6 22  1  0
  6 23  1  0
  7 24  1  0
  7 25  1  0
 10 26  1  0
M  END

     RDKit          3D

 44 43  0  0  0  0  0  0  0  0999 V2000
    5.3266    2.3673   -0.4691 C   0  0  0  0  0  0  0  0  0  0  0  0
    5.4974    1.2322    0.5405 C   0  0  0  0  0  0  0  0  0  0  0  0
    5.3807   -0.1669   -0.0946 C   0  0  0  0  0  0  0  0  0  0  0  0
    4.0290   -0.4589   -0.7722 C   0  0  0  0  0  0  0  0  0  0  0  0
    2.8540   -0.4519    0.2166 C   0  0  0  0  0  0  0  0  0  0  0  0
    1.5579   -0.9013   -0.4682 C   0  0  0  0  0  0  0  0  0  0  0  0
    0.3896   -0.9054    0.5234 C   0  0  0  0  0  0  0  0  0  0  0  0
   -0.9118   -1.3563   -0.1505 C   0  0  0  0  0  0  0  0  0  0  0  0
   -2.0781   -1.3394    0.8486 C   0  0  0  0  0  0  0  0  0  0  0  0
   -3.3749   -1.9324    0.2683 C   0  0  0  0  0  0  0  0  0  0  0  0
   -3.9420   -1.1922   -0.9608 C   0  0  0  0  0  0  0  0  0  0  0  0
   -4.1984    0.3135   -0.7586 C   0  0  0  0  0  0  0  0  0  0  0  0
   -5.2124    0.6016    0.3581 C   0  0  0  0  0  0  0  0  0  0  0  0
   -5.5450    2.0633    0.4393 C   0  0  0  0  0  0  0  0  0  0  0  0
   -6.6860    2.4254    0.8392 O   0  0  0  0  0  0  0  0  0  0  0  0
   -4.5765    3.0221    0.1515 O   0  0  0  0  0  0  0  0  0  0  0  0
    5.9688    2.1951   -1.3586 H   0  0  0  0  0  0  0  0  0  0  0  0
    5.6190    3.3298   -0.0000 H   0  0  0  0  0  0  0  0  0  0  0  0
    4.2630    2.4457   -0.7842 H   0  0  0  0  0  0  0  0  0  0  0  0
    6.5074    1.3180    0.9935 H   0  0  0  0  0  0  0  0  0  0  0  0
    4.7635    1.3515    1.3638 H   0  0  0  0  0  0  0  0  0  0  0  0
    6.1874   -0.2849   -0.8513 H   0  0  0  0  0  0  0  0  0  0  0  0
    5.5594   -0.9313    0.6942 H   0  0  0  0  0  0  0  0  0  0  0  0
    4.0953   -1.4672   -1.2386 H   0  0  0  0  0  0  0  0  0  0  0  0
    3.8458    0.2685   -1.5931 H   0  0  0  0  0  0  0  0  0  0  0  0
    3.0796   -1.1346    1.0676 H   0  0  0  0  0  0  0  0  0  0  0  0
    2.7078    0.5765    0.6116 H   0  0  0  0  0  0  0  0  0  0  0  0
    1.6939   -1.9246   -0.8813 H   0  0  0  0  0  0  0  0  0  0  0  0
    1.3256   -0.2095   -1.3067 H   0  0  0  0  0  0  0  0  0  0  0  0
    0.6259   -1.5942    1.3630 H   0  0  0  0  0  0  0  0  0  0  0  0
    0.2546    0.1165    0.9388 H   0  0  0  0  0  0  0  0  0  0  0  0
   -0.7801   -2.3842   -0.5544 H   0  0  0  0  0  0  0  0  0  0  0  0
   -1.1360   -0.6689   -0.9922 H   0  0  0  0  0  0  0  0  0  0  0  0
   -1.7968   -1.9491    1.7347 H   0  0  0  0  0  0  0  0  0  0  0  0
   -2.2540   -0.3040    1.2127 H   0  0  0  0  0  0  0  0  0  0  0  0
   -3.1858   -2.9901   -0.0183 H   0  0  0  0  0  0  0  0  0  0  0  0
   -4.1452   -1.9585    1.0683 H   0  0  0  0  0  0  0  0  0  0  0  0
   -4.8975   -1.6826   -1.2519 H   0  0  0  0  0  0  0  0  0  0  0  0
   -3.2472   -1.3237   -1.8174 H   0  0  0  0  0  0  0  0  0  0  0  0
   -4.5929    0.7228   -1.7144 H   0  0  0  0  0  0  0  0  0  0  0  0
   -3.2426    0.8402   -0.5478 H   0  0  0  0  0  0  0  0  0  0  0  0
   -6.1446    0.0257    0.1674 H   0  0  0  0  0  0  0  0  0  0  0  0
   -4.7981    0.2866    1.3399 H   0  0  0  0  0  0  0  0  0  0  0  0
   -4.7861    4.0100    0.2336 H   0  0  0  0  0  0  0  0  0  0  0  0
  1  2  1  0
  2  3  1  0
  3  4  1  0
  4  5  1  0
  5  6  1  0
  6  7  1  0
  7  8  1  0
  8  9  1  0
  9 10  1  0
 10 11  1  0
 11 12  1  0
 12 13  1  0
 13 14  1  0
 14 15  2  0
 14 16  1  0
  1 17  1  0
  1 18  1  0
  1 19  1  0
  2 20  1  0
  2 21  1  0
  3 22  1  0
  3 23  1  0
  4 24  1  0
  4 25  1  0
  5 26  1  0
  5 27  1  0
  6 28  1  0
  6 29  1  0
  7 30  1  0
  7 31  1  0
  8 32  1  0
  8 33  1  0
  9 34  1  0
  9 35  1  0
 10 36  1  0
 10 37  1  0
 11 38  1  0
 11 39  1  0
 12 40  1  0
 12 41  1  0
 13 42  1  0
 13 43  1  0
 16 44  1  0
M  END

     RDKit          3D

 49 51  0  0  0  0  0  0  0  0999 V2000
   -2.9053    0.6613    3.3747 C   0  0  0  0  0  0  0  0  0  0  0  0
   -3.6640    0.1241    2.2989 O   0  0  0  0  0  0  0  0  0  0  0  0
   -3.2493    0.0931    0.9586 C   0  0  0  0  0  0  0  0  0  0  0  0
   -1.9906    0.6180    0.5619 C   0  0  0  0  0  0  0  0  0  0  0  0
   -1.5967    0.6336   -0.7925 C   0  0  0  0  0  0  0  0  0  0  0  0
   -0.2384    1.1604   -1.1788 C   0  0  0  0  0  0  0  0  0  0  0  0
    0.7943    0.0273   -1.1881 C   0  0  0  0  0  0  0  0  0  0  0  0
    2.1869    0.5552   -1.5603 C   0  0  0  0  0  0  0  0  0  0  0  0
    3.2431   -0.5599   -1.6558 C   0  0  0  0  0  0  0  0  0  0  0  0
    3.5910   -1.2135   -0.3067 C   0  0  0  0  0  0  0  0  0  0  0  0
    4.1688   -0.2245    0.6703 C   0  0  0  0  0  0  0  0  0  0  0  0
    3.3817    0.2884    1.7149 C   0  0  0  0  0  0  0  0  0  0  0  0
    3.9195    1.2188    2.6095 C   0  0  0  0  0  0  0  0  0  0  0  0
    5.2413    1.6458    2.4669 C   0  0  0  0  0  0  0  0  0  0  0  0
    6.0272    1.1471    1.4241 C   0  0  0  0  0  0  0  0  0  0  0  0
    5.4948    0.2163    0.5276 C   0  0  0  0  0  0  0  0  0  0  0  0
   -2.4854    0.0931   -1.7320 C   0  0  0  0  0  0  0  0  0  0  0  0
   -3.7193   -0.4133   -1.3546 C   0  0  0  0  0  0  0  0  0  0  0  0
   -4.1211   -0.4474   -0.0194 C   0  0  0  0  0  0  0  0  0  0  0  0
   -5.3732   -0.9950    0.2940 O   0  0  0  0  0  0  0  0  0  0  0  0
   -5.5686   -1.9903    1.2947 C   0  0  0  0  0  0  0  0  0  0  0  0
   -4.4542   -0.9356   -2.4633 N   0  0  0  0  0  0  0  0  0  0  0  0
   -3.6063   -0.7414   -3.5887 C   0  0  0  0  0  0  0  0  0  0  0  0
   -3.8975   -1.0969   -4.7602 O   0  0  0  0  0  0  0  0  0  0  0  0
   -2.3671   -0.1028   -3.1762 C   0  0  0  0  0  0  0  0  0  0  0  0
   -1.3869    0.1799   -3.9131 O   0  0  0  0  0  0  0  0  0  0  0  0
   -2.7214    1.7451    3.2109 H   0  0  0  0  0  0  0  0  0  0  0  0
   -1.9404    0.1196    3.4686 H   0  0  0  0  0  0  0  0  0  0  0  0
   -3.4744    0.5346    4.3213 H   0  0  0  0  0  0  0  0  0  0  0  0
   -1.3142    1.0208    1.3048 H   0  0  0  0  0  0  0  0  0  0  0  0
   -0.2880    1.6501   -2.1742 H   0  0  0  0  0  0  0  0  0  0  0  0
    0.0763    1.9419   -0.4515 H   0  0  0  0  0  0  0  0  0  0  0  0
    0.8242   -0.4294   -0.1761 H   0  0  0  0  0  0  0  0  0  0  0  0
    0.4829   -0.7512   -1.9182 H   0  0  0  0  0  0  0  0  0  0  0  0
    2.5076    1.3266   -0.8284 H   0  0  0  0  0  0  0  0  0  0  0  0
    2.1255    1.0549   -2.5510 H   0  0  0  0  0  0  0  0  0  0  0  0
    2.8834   -1.3469   -2.3538 H   0  0  0  0  0  0  0  0  0  0  0  0
    4.1690   -0.1290   -2.0985 H   0  0  0  0  0  0  0  0  0  0  0  0
    4.3438   -2.0129   -0.4867 H   0  0  0  0  0  0  0  0  0  0  0  0
    2.6993   -1.7188    0.1236 H   0  0  0  0  0  0  0  0  0  0  0  0
    2.3542   -0.0291    1.8360 H   0  0  0  0  0  0  0  0  0  0  0  0
    3.3110    1.6078    3.4145 H   0  0  0  0  0  0  0  0  0  0  0  0
    5.6561    2.3615    3.1643 H   0  0  0  0  0  0  0  0  0  0  0  0
    7.0495    1.4825    1.3090 H   0  0  0  0  0  0  0  0  0  0  0  0
    6.1143   -0.1634   -0.2752 H   0  0  0  0  0  0  0  0  0  0  0  0
   -4.9034   -2.8675    1.0946 H   0  0  0  0  0  0  0  0  0  0  0  0
   -5.3712   -1.5914    2.3159 H   0  0  0  0  0  0  0  0  0  0  0  0
   -6.6269   -2.3310    1.2599 H   0  0  0  0  0  0  0  0  0  0  0  0
   -5.3819   -1.4163   -2.4440 H   0  0  0  0  0  0  0  0  0  0  0  0
  1  2  1  0
  2  3  1  0
  3  4  2  0
  4  5  1  0
  5  6  1  0
  6  7  1  0
  7  8  1  0
  8  9  1  0
  9 10  1  0
 10 11  1  0
 11 12  2  0
 12 13  1  0
 13 14  2  0
 14 15  1  0
 15 16  2  0
  5 17  2  0
 17 18  1  0
 18 19  2  0
 19 20  1  0
 20 21  1  0
 18 22  1  0
 22 23  1  0
 23 24  2  0
 23 25  1  0
 25 26  2  0
 19  3  1  0
 16 11  1  0
 25 17  1  0
  1 27  1  0
  1 28  1  0
  1 29  1  0
  4 30  1  0
  6 31  1  0
  6 32  1  0
  7 33  1  0
  7 34  1  0
  8 35  1  0
  8 36  1  0
  9 37  1  0
  9 38  1  0
 10 39  1  0
 10 40  1  0
 12 41  1  0
 13 42  1  0
 14 43  1  0
 15 44  1  0
 16 45  1  0
 21 46  1  0
 21 47  1  0
 21 48  1  0
 22 49  1  0
M  END

     RDKit          3D

 41 43  0  0  0  0  0  0  0  0999 V2000
   -5.1284    4.1935   -0.2973 O   0  0  0  0  0  0  0  0  0  0  0  0
   -4.8393    2.9684   -0.2881 C   0  0  0  0  0  0  0  0  0  0  0  0
   -5.7656    1.9284   -0.5855 N   0  0  0  0  0  0  0  0  0  0  0  0
   -5.0119    0.7233   -0.4522 C   0  0  0  0  0  0  0  0  0  0  0  0
   -5.4944   -0.5681   -0.6377 C   0  0  0  0  0  0  0  0  0  0  0  0
   -4.6104   -1.6405   -0.4549 C   0  0  0  0  0  0  0  0  0  0  0  0
   -3.2673   -1.4119   -0.0938 C   0  0  0  0  0  0  0  0  0  0  0  0
   -2.7757   -0.0936    0.0890 C   0  0  0  0  0  0  0  0  0  0  0  0
   -1.3458    0.2203    0.4884 C   0  0  0  0  0  0  0  0  0  0  0  0
   -0.4039   -0.9912    0.5655 C   0  0  0  0  0  0  0  0  0  0  0  0
    1.0204   -0.5556    0.9308 C   0  0  0  0  0  0  0  0  0  0  0  0
    1.9677   -1.7628    0.9940 C   0  0  0  0  0  0  0  0  0  0  0  0
    3.3776   -1.3741    1.4620 C   0  0  0  0  0  0  0  0  0  0  0  0
    4.0862   -0.4994    0.4594 C   0  0  0  0  0  0  0  0  0  0  0  0
    4.6552   -1.0647   -0.6942 C   0  0  0  0  0  0  0  0  0  0  0  0
    5.2918   -0.2513   -1.6367 C   0  0  0  0  0  0  0  0  0  0  0  0
    5.3606    1.1302   -1.4370 C   0  0  0  0  0  0  0  0  0  0  0  0
    4.7911    1.7010   -0.2954 C   0  0  0  0  0  0  0  0  0  0  0  0
    4.1537    0.8913    0.6496 C   0  0  0  0  0  0  0  0  0  0  0  0
   -3.6916    0.9560   -0.0968 C   0  0  0  0  0  0  0  0  0  0  0  0
   -3.5351    2.4039    0.0228 C   0  0  0  0  0  0  0  0  0  0  0  0
   -2.4947    3.0403    0.3359 O   0  0  0  0  0  0  0  0  0  0  0  0
   -6.7734    2.0265   -0.8405 H   0  0  0  0  0  0  0  0  0  0  0  0
   -6.5265   -0.7413   -0.9133 H   0  0  0  0  0  0  0  0  0  0  0  0
   -4.9645   -2.6544   -0.5906 H   0  0  0  0  0  0  0  0  0  0  0  0
   -2.6304   -2.2745    0.0377 H   0  0  0  0  0  0  0  0  0  0  0  0
   -0.9299    0.9381   -0.2518 H   0  0  0  0  0  0  0  0  0  0  0  0
   -1.3641    0.7222    1.4803 H   0  0  0  0  0  0  0  0  0  0  0  0
   -0.3840   -1.5057   -0.4209 H   0  0  0  0  0  0  0  0  0  0  0  0
   -0.7735   -1.6966    1.3421 H   0  0  0  0  0  0  0  0  0  0  0  0
    1.3875    0.1623    0.1656 H   0  0  0  0  0  0  0  0  0  0  0  0
    1.0069   -0.0442    1.9187 H   0  0  0  0  0  0  0  0  0  0  0  0
    2.0247   -2.2515   -0.0036 H   0  0  0  0  0  0  0  0  0  0  0  0
    1.5589   -2.5068    1.7119 H   0  0  0  0  0  0  0  0  0  0  0  0
    3.9715   -2.3016    1.6136 H   0  0  0  0  0  0  0  0  0  0  0  0
    3.3184   -0.8690    2.4512 H   0  0  0  0  0  0  0  0  0  0  0  0
    4.6030   -2.1333   -0.8633 H   0  0  0  0  0  0  0  0  0  0  0  0
    5.7306   -0.6917   -2.5226 H   0  0  0  0  0  0  0  0  0  0  0  0
    5.8539    1.7585   -2.1674 H   0  0  0  0  0  0  0  0  0  0  0  0
    4.8420    2.7717   -0.1433 H   0  0  0  0  0  0  0  0  0  0  0  0
    3.7089    1.3479    1.5252 H   0  0  0  0  0  0  0  0  0  0  0  0
  1  2  2  0
  2  3  1  0
  3  4  1  0
  4  5  2  0
  5  6  1  0
  6  7  2  0
  7  8  1  0
  8  9  1  0
  9 10  1  0
 10 11  1  0
 11 12  1  0
 12 13  1  0
 13 14  1  0
 14 15  2  0
 15 16  1  0
 16 17  2  0
 17 18  1  0
 18 19  2  0
  8 20  2  0
 20 21  1  0
 21 22  2  0
 21  2  1  0
 20  4  1  0
 19 14  1  0
  3 23  1  0
  5 24  1  0
  6 25  1  0
  7 26  1  0
  9 27  1  0
  9 28  1  0
 10 29  1  0
 10 30  1  0
 11 31  1  0
 11 32  1  0
 12 33  1  0
 12 34  1  0
 13 35  1  0
 13 36  1  0
 15 37  1  0
 16 38  1  0
 17 39  1  0
 18 40  1  0
 19 41  1  0
M  END

     RDKit          3D

 45 49  0  0  0  0  0  0  0  0999 V2000
   -6.0231    0.2901    1.5978 C   0  0  0  0  0  0  0  0  0  0  0  0
   -5.4407    0.1789    0.3022 O   0  0  0  0  0  0  0  0  0  0  0  0
   -4.0603    0.1741    0.0445 C   0  0  0  0  0  0  0  0  0  0  0  0
   -3.1086    0.2966    1.0709 C   0  0  0  0  0  0  0  0  0  0  0  0
   -1.7387    0.2694    0.7801 C   0  0  0  0  0  0  0  0  0  0  0  0
   -1.2974    0.1654   -0.5584 C   0  0  0  0  0  0  0  0  0  0  0  0
   -2.2571    0.0285   -1.5796 C   0  0  0  0  0  0  0  0  0  0  0  0
   -3.6339    0.0379   -1.2833 C   0  0  0  0  0  0  0  0  0  0  0  0
   -4.6123   -0.0883   -2.2829 O   0  0  0  0  0  0  0  0  0  0  0  0
   -4.3359   -0.2102   -3.6751 C   0  0  0  0  0  0  0  0  0  0  0  0
    0.1750    0.1672   -0.8367 C   0  0  0  0  0  0  0  0  0  0  0  0
    0.7014    0.4191   -2.1183 C   0  0  0  0  0  0  0  0  0  0  0  0
    2.0787    0.4368   -2.3343 C   0  0  0  0  0  0  0  0  0  0  0  0
    2.9677    0.2642   -1.2680 C   0  0  0  0  0  0  0  0  0  0  0  0
    4.3612    0.3497   -1.4876 C   0  0  0  0  0  0  0  0  0  0  0  0
    5.2031    0.2379   -0.3866 C   0  0  0  0  0  0  0  0  0  0  0  0
    4.7255    0.0573    0.8679 C   0  0  0  0  0  0  0  0  0  0  0  0
    3.3654   -0.0391    1.1360 C   0  0  0  0  0  0  0  0  0  0  0  0
    2.4579    0.0396    0.0501 C   0  0  0  0  0  0  0  0  0  0  0  0
    1.0588   -0.0526    0.2434 C   0  0  0  0  0  0  0  0  0  0  0  0
    0.4869   -0.3325    1.5360 N   0  0  0  0  0  0  0  0  0  0  0  0
    0.7501   -1.6135    2.1956 C   0  0  0  0  0  0  0  0  0  0  0  0
   -0.7306    0.3987    1.8937 C   0  0  0  0  0  0  0  0  0  0  0  0
    5.7798    0.0043    1.7598 O   0  0  0  0  0  0  0  0  0  0  0  0
    6.9970    0.1523    1.0176 C   0  0  0  0  0  0  0  0  0  0  0  0
    6.5833    0.3026   -0.3484 O   0  0  0  0  0  0  0  0  0  0  0  0
   -5.7386    1.2579    2.0638 H   0  0  0  0  0  0  0  0  0  0  0  0
   -7.1285    0.2508    1.5027 H   0  0  0  0  0  0  0  0  0  0  0  0
   -5.6929   -0.5559    2.2374 H   0  0  0  0  0  0  0  0  0  0  0  0
   -3.4254    0.4079    2.0994 H   0  0  0  0  0  0  0  0  0  0  0  0
   -1.9437   -0.1134   -2.6012 H   0  0  0  0  0  0  0  0  0  0  0  0
   -5.2930   -0.2797   -4.2303 H   0  0  0  0  0  0  0  0  0  0  0  0
   -3.7798    0.6819   -4.0332 H   0  0  0  0  0  0  0  0  0  0  0  0
   -3.7472   -1.1316   -3.8707 H   0  0  0  0  0  0  0  0  0  0  0  0
    0.0612    0.6294   -2.9621 H   0  0  0  0  0  0  0  0  0  0  0  0
    2.4502    0.6238   -3.3348 H   0  0  0  0  0  0  0  0  0  0  0  0
    4.7749    0.5196   -2.4749 H   0  0  0  0  0  0  0  0  0  0  0  0
    3.0383   -0.1520    2.1601 H   0  0  0  0  0  0  0  0  0  0  0  0
   -0.1025   -2.3030    2.0230 H   0  0  0  0  0  0  0  0  0  0  0  0
    0.8769   -1.4560    3.2881 H   0  0  0  0  0  0  0  0  0  0  0  0
    1.6655   -2.0968    1.7949 H   0  0  0  0  0  0  0  0  0  0  0  0
   -0.4853    1.4714    2.0446 H   0  0  0  0  0  0  0  0  0  0  0  0
   -1.1529    0.0094    2.8465 H   0  0  0  0  0  0  0  0  0  0  0  0
    7.6257   -0.7557    1.1304 H   0  0  0  0  0  0  0  0  0  0  0  0
    7.5441    1.0576    1.3560 H   0  0  0  0  0  0  0  0  0  0  0  0
  1  2  1  0
  2  3  1  0
  3  4  2  0
  4  5  1  0
  5  6  2  0
  6  7  1  0
  7  8  2  0
  8  9  1  0
  9 10  1  0
  6 11  1  0
 11 12  2  0
 12 13  1  0
 13 14  2  0
 14 15  1  0
 15 16  2  0
 16 17  1  0
 17 18  2  0
 18 19  1  0
 19 20  2  0
 20 21  1  0
 21 22  1  0
 21 23  1  0
 17 24  1  0
 24 25  1  0
 25 26  1  0
  8  3  1  0
 20 11  1  0
 23  5  1  0
 19 14  1  0
 26 16  1  0
  1 27  1  0
  1 28  1  0
  1 29  1  0
  4 30  1  0
  7 31  1  0
 10 32  1  0
 10 33  1  0
 10 34  1  0
 12 35  1  0
 13 36  1  0
 15 37  1  0
 18 38  1  0
 22 39  1  0
 22 40  1  0
 22 41  1  0
 23 42  1  0
 23 43  1  0
 25 44  1  0
 25 45  1  0
M  END

     RDKit          3D

 46 49  0  0  0  0  0  0  0  0999 V2000
    4.8895   -0.2883    2.6939 C   0  0  0  0  0  0  0  0  0  0  0  0
    5.2098   -0.4969    1.3131 O   0  0  0  0  0  0  0  0  0  0  0  0
    4.3541   -0.2174    0.2356 C   0  0  0  0  0  0  0  0  0  0  0  0
    3.0183    0.1878    0.4226 C   0  0  0  0  0  0  0  0  0  0  0  0
    2.1921    0.4782   -0.6808 C   0  0  0  0  0  0  0  0  0  0  0  0
    0.7164    0.8226   -0.5563 C   0  0  1  0  0  0  0  0  0  0  0  0
   -0.0396   -0.3105   -0.9913 O   0  0  0  0  0  0  0  0  0  0  0  0
   -1.4118   -0.4188   -0.7535 C   0  0  0  0  0  0  0  0  0  0  0  0
   -2.1730   -1.3791   -1.4345 C   0  0  0  0  0  0  0  0  0  0  0  0
   -1.5269   -2.2063   -2.3687 O   0  0  0  0  0  0  0  0  0  0  0  0
   -2.1869   -3.1605   -3.1926 C   0  0  0  0  0  0  0  0  0  0  0  0
   -3.5544   -1.4747   -1.1695 C   0  0  0  0  0  0  0  0  0  0  0  0
   -4.1557   -0.6110   -0.2376 C   0  0  0  0  0  0  0  0  0  0  0  0
   -5.5205   -0.6902    0.0560 C   0  0  0  0  0  0  0  0  0  0  0  0
   -6.0704    0.1782    0.9990 C   0  0  0  0  0  0  0  0  0  0  0  0
   -5.2408    1.1071    1.6333 C   0  0  0  0  0  0  0  0  0  0  0  0
   -5.7157    1.8894    2.4981 O   0  0  0  0  0  0  0  0  0  0  0  0
   -3.9460    1.1601    1.3359 O   0  0  0  0  0  0  0  0  0  0  0  0
   -3.3795    0.3513    0.4415 C   0  0  0  0  0  0  0  0  0  0  0  0
   -2.0080    0.4367    0.1824 C   0  0  0  0  0  0  0  0  0  0  0  0
   -1.2084    1.3651    0.8548 O   0  0  0  0  0  0  0  0  0  0  0  0
    0.2193    1.2677    0.8504 C   0  0  2  0  0  0  0  0  0  0  0  0
    0.8143    2.6134    1.2910 C   0  0  0  0  0  0  0  0  0  0  0  0
    0.4129    3.6468    0.4312 O   0  0  0  0  0  0  0  0  0  0  0  0
    2.7228    0.3399   -1.9772 C   0  0  0  0  0  0  0  0  0  0  0  0
    4.0373   -0.0794   -2.1676 C   0  0  0  0  0  0  0  0  0  0  0  0
    4.8524   -0.3670   -1.0658 C   0  0  0  0  0  0  0  0  0  0  0  0
    6.1620   -0.8066   -1.2623 O   0  0  0  0  0  0  0  0  0  0  0  0
    4.0193   -0.9192    2.9852 H   0  0  0  0  0  0  0  0  0  0  0  0
    4.6668    0.7853    2.8743 H   0  0  0  0  0  0  0  0  0  0  0  0
    5.7583   -0.5783    3.3191 H   0  0  0  0  0  0  0  0  0  0  0  0
    2.6352    0.2594    1.4269 H   0  0  0  0  0  0  0  0  0  0  0  0
    0.4987    1.6549   -1.2662 H   0  0  0  0  0  0  0  0  0  0  0  0
   -2.6560   -3.9458   -2.5597 H   0  0  0  0  0  0  0  0  0  0  0  0
   -1.4415   -3.6417   -3.8631 H   0  0  0  0  0  0  0  0  0  0  0  0
   -2.9555   -2.6565   -3.8188 H   0  0  0  0  0  0  0  0  0  0  0  0
   -4.1621   -2.2047   -1.6831 H   0  0  0  0  0  0  0  0  0  0  0  0
   -6.1519   -1.4162   -0.4378 H   0  0  0  0  0  0  0  0  0  0  0  0
   -7.1230    0.1253    1.2357 H   0  0  0  0  0  0  0  0  0  0  0  0
    0.4768    0.4900    1.5983 H   0  0  0  0  0  0  0  0  0  0  0  0
    0.4986    2.8391    2.3351 H   0  0  0  0  0  0  0  0  0  0  0  0
    1.9197    2.5680    1.2908 H   0  0  0  0  0  0  0  0  0  0  0  0
   -0.5097    3.9026    0.7029 H   0  0  0  0  0  0  0  0  0  0  0  0
    2.1053    0.5400   -2.8484 H   0  0  0  0  0  0  0  0  0  0  0  0
    4.4246   -0.1853   -3.1756 H   0  0  0  0  0  0  0  0  0  0  0  0
    6.5331   -0.9549   -2.1977 H   0  0  0  0  0  0  0  0  0  0  0  0
  1  2  1  0
  2  3  1  0
  3  4  2  0
  4  5  1  0
  5  6  1  0
  6  7  1  0
  7  8  1  0
  8  9  2  0
  9 10  1  0
 10 11  1  0
  9 12  1  0
 12 13  2  0
 13 14  1  0
 14 15  2  0
 15 16  1  0
 16 17  2  0
 16 18  1  0
 18 19  1  0
 19 20  2  0
 20 21  1  0
 21 22  1  0
 22 23  1  0
 23 24  1  0
  5 25  2  0
 25 26  1  0
 26 27  2  0
 27 28  1  0
 27  3  1  0
 22  6  1  0
 20  8  1  0
 19 13  1  0
  1 29  1  0
  1 30  1  0
  1 31  1  0
  4 32  1  0
  6 33  1  6
 11 34  1  0
 11 35  1  0
 11 36  1  0
 12 37  1  0
 14 38  1  0
 15 39  1  0
 22 40  1  1
 23 41  1  0
 23 42  1  0
 24 43  1  0
 25 44  1  0
 26 45  1  0
 28 46  1  0
M  END

     RDKit          3D

 20 20  0  0  0  0  0  0  0  0999 V2000
   -3.6134   -1.0562    0.3578 C   0  0  0  0  0  0  0  0  0  0  0  0
   -2.9159    0.1351    0.0135 O   0  0  0  0  0  0  0  0  0  0  0  0
   -1.5194    0.2909    0.0140 C   0  0  0  0  0  0  0  0  0  0  0  0
   -1.0298    1.4856   -0.3386 C   0  0  0  0  0  0  0  0  0  0  0  0
    0.4224    1.7364   -0.3655 C   0  0  0  0  0  0  0  0  0  0  0  0
    0.8541    2.8708   -0.7015 O   0  0  0  0  0  0  0  0  0  0  0  0
    1.3678    0.6633   -0.0004 C   0  0  0  0  0  0  0  0  0  0  0  0
    2.7436    0.9461   -0.0399 O   0  0  0  0  0  0  0  0  0  0  0  0
    3.7745    0.0174    0.2835 C   0  0  0  0  0  0  0  0  0  0  0  0
    0.8866   -0.5414    0.3556 C   0  0  0  0  0  0  0  0  0  0  0  0
   -0.5672   -0.7969    0.3839 C   0  0  0  0  0  0  0  0  0  0  0  0
   -0.9752   -1.9383    0.7229 O   0  0  0  0  0  0  0  0  0  0  0  0
   -3.3954   -1.3380    1.4094 H   0  0  0  0  0  0  0  0  0  0  0  0
   -3.3345   -1.8778   -0.3349 H   0  0  0  0  0  0  0  0  0  0  0  0
   -4.7036   -0.8748    0.2636 H   0  0  0  0  0  0  0  0  0  0  0  0
   -1.7083    2.2857   -0.6099 H   0  0  0  0  0  0  0  0  0  0  0  0
    4.7594    0.5134    0.1644 H   0  0  0  0  0  0  0  0  0  0  0  0
    3.6705   -0.3172    1.3373 H   0  0  0  0  0  0  0  0  0  0  0  0
    3.7312   -0.8554   -0.4018 H   0  0  0  0  0  0  0  0  0  0  0  0
    1.5528   -1.3487    0.6287 H   0  0  0  0  0  0  0  0  0  0  0  0
  1  2  1  0
  2  3  1  0
  3  4  2  0
  4  5  1  0
  5  6  2  0
  5  7  1  0
  7  8  1  0
  8  9  1  0
  7 10  2  0
 10 11  1  0
 11 12  2  0
 11  3  1  0
  1 13  1  0
  1 14  1  0
  1 15  1  0
  4 16  1  0
  9 17  1  0
  9 18  1  0
  9 19  1  0
 10 20  1  0
M  END

     RDKit          3D

 28 30  0  0  0  0  0  0  0  0999 V2000
    4.0615   -1.6682   -0.2209 C   0  0  0  0  0  0  0  0  0  0  0  0
    3.8771   -0.3462    0.2877 O   0  0  0  0  0  0  0  0  0  0  0  0
    2.6348    0.2749    0.4915 C   0  0  0  0  0  0  0  0  0  0  0  0
    2.6382    1.5805    0.7756 C   0  0  0  0  0  0  0  0  0  0  0  0
    1.3881    2.3246    0.9609 C   0  0  0  0  0  0  0  0  0  0  0  0
    1.4410    3.5259    1.3282 O   0  0  0  0  0  0  0  0  0  0  0  0
    0.0885    1.6717    0.6787 C   0  0  0  0  0  0  0  0  0  0  0  0
   -1.0954    2.4189    0.7410 C   0  0  0  0  0  0  0  0  0  0  0  0
   -2.3192    1.8313    0.4545 C   0  0  0  0  0  0  0  0  0  0  0  0
   -2.3851    0.4927    0.0581 C   0  0  0  0  0  0  0  0  0  0  0  0
   -3.6309   -0.0677   -0.2648 C   0  0  0  0  0  0  0  0  0  0  0  0
   -3.7164   -1.3878   -0.7048 C   0  0  0  0  0  0  0  0  0  0  0  0
   -2.5614   -2.1549   -0.8449 C   0  0  0  0  0  0  0  0  0  0  0  0
   -1.3128   -1.6121   -0.5322 C   0  0  0  0  0  0  0  0  0  0  0  0
   -1.1974   -0.2888   -0.0375 C   0  0  0  0  0  0  0  0  0  0  0  0
    0.0526    0.2995    0.3321 C   0  0  0  0  0  0  0  0  0  0  0  0
    1.3410   -0.4593    0.4296 C   0  0  0  0  0  0  0  0  0  0  0  0
    1.3399   -1.7050    0.5978 O   0  0  0  0  0  0  0  0  0  0  0  0
    5.1378   -1.8186   -0.4321 H   0  0  0  0  0  0  0  0  0  0  0  0
    3.7525   -2.4214    0.5363 H   0  0  0  0  0  0  0  0  0  0  0  0
    3.4855   -1.8011   -1.1667 H   0  0  0  0  0  0  0  0  0  0  0  0
    3.5807    2.1102    0.8590 H   0  0  0  0  0  0  0  0  0  0  0  0
   -1.0750    3.4669    1.0141 H   0  0  0  0  0  0  0  0  0  0  0  0
   -3.2175    2.4352    0.5194 H   0  0  0  0  0  0  0  0  0  0  0  0
   -4.5402    0.5184   -0.1846 H   0  0  0  0  0  0  0  0  0  0  0  0
   -4.6784   -1.8106   -0.9580 H   0  0  0  0  0  0  0  0  0  0  0  0
   -2.6320   -3.1730   -1.2115 H   0  0  0  0  0  0  0  0  0  0  0  0
   -0.4574   -2.2362   -0.7311 H   0  0  0  0  0  0  0  0  0  0  0  0
  1  2  1  0
  2  3  1  0
  3  4  2  0
  4  5  1  0
  5  6  2  0
  5  7  1  0
  7  8  2  0
  8  9  1  0
  9 10  2  0
 10 11  1  0
 11 12  2  0
 12 13  1  0
 13 14  2  0
 14 15  1  0
 15 16  2  0
 16 17  1  0
 17 18  2  0
 17  3  1  0
 16  7  1  0
 15 10  1  0
  1 19  1  0
  1 20  1  0
  1 21  1  0
  4 22  1  0
  8 23  1  0
  9 24  1  0
 11 25  1  0
 12 26  1  0
 13 27  1  0
 14 28  1  0
M  END

     RDKit          3D

 55 58  0  0  0  0  0  0  0  0999 V2000
    2.3032    2.9788   -2.5228 C   0  0  0  0  0  0  0  0  0  0  0  0
    2.8074    2.3264   -1.2775 C   0  0  0  0  0  0  0  0  0  0  0  0
    3.9670    2.5795   -0.8634 O   0  0  0  0  0  0  0  0  0  0  0  0
    1.9491    1.4832   -0.5580 O   0  0  0  0  0  0  0  0  0  0  0  0
    2.3975    0.6328    0.4971 C   0  0  1  0  0  0  0  0  0  0  0  0
    1.2590    0.2838    1.4859 C   0  0  0  0  0  0  0  0  0  0  0  0
   -0.0660   -0.4436    1.0206 C   0  0  1  0  0  0  0  0  0  0  0  0
    0.2756   -1.9011    0.5882 C   0  0  0  0  0  0  0  0  0  0  0  0
   -1.0250   -0.5090    2.2789 C   0  0  2  0  0  0  0  0  0  0  0  0
   -0.4204   -1.1116    3.5652 C   0  0  0  0  0  0  0  0  0  0  0  0
   -2.3632   -1.2224    1.9842 C   0  0  0  0  0  0  0  0  0  0  0  0
   -2.9497   -0.8999    0.5974 C   0  0  0  0  0  0  0  0  0  0  0  0
   -2.4065    0.4179    0.0017 C   0  0  2  0  0  0  0  0  0  0  0  0
   -2.9701    1.6438    0.8237 C   0  0  0  0  0  0  0  0  0  0  0  0
   -3.9657    2.2662    0.0149 O   0  0  0  0  0  0  0  0  0  0  0  0
   -4.0288    1.6791   -1.2313 C   0  0  0  0  0  0  0  0  0  0  0  0
   -4.7952    2.0609   -2.1496 O   0  0  0  0  0  0  0  0  0  0  0  0
   -3.0565    0.6255   -1.3422 C   0  0  0  0  0  0  0  0  0  0  0  0
   -2.6268    0.0670   -2.4701 C   0  0  0  0  0  0  0  0  0  0  0  0
   -1.3421   -0.6954   -2.4247 C   0  0  0  0  0  0  0  0  0  0  0  0
   -0.3378    0.1039   -1.5860 C   0  0  0  0  0  0  0  0  0  0  0  0
   -0.8209    0.3960   -0.1168 C   0  0  2  0  0  0  0  0  0  0  0  0
    3.1378   -0.5739   -0.0260 C   0  0  0  0  0  0  0  0  0  0  0  0
    3.3572   -0.9210   -1.3434 C   0  0  0  0  0  0  0  0  0  0  0  0
    4.1459   -2.0518   -1.3065 C   0  0  0  0  0  0  0  0  0  0  0  0
    4.3964   -2.3801   -0.0568 O   0  0  0  0  0  0  0  0  0  0  0  0
    3.8159   -1.5108    0.7337 C   0  0  0  0  0  0  0  0  0  0  0  0
    3.1199    3.5388   -3.0214 H   0  0  0  0  0  0  0  0  0  0  0  0
    1.9162    2.1998   -3.2151 H   0  0  0  0  0  0  0  0  0  0  0  0
    1.4796    3.6862   -2.2712 H   0  0  0  0  0  0  0  0  0  0  0  0
    3.1439    1.2041    1.0964 H   0  0  0  0  0  0  0  0  0  0  0  0
    1.7364   -0.3280    2.2797 H   0  0  0  0  0  0  0  0  0  0  0  0
    0.9637    1.2369    1.9743 H   0  0  0  0  0  0  0  0  0  0  0  0
    0.7945   -2.4521    1.4028 H   0  0  0  0  0  0  0  0  0  0  0  0
   -0.6287   -2.4737    0.3072 H   0  0  0  0  0  0  0  0  0  0  0  0
    0.9579   -1.9604   -0.2744 H   0  0  0  0  0  0  0  0  0  0  0  0
   -1.2675    0.5406    2.5610 H   0  0  0  0  0  0  0  0  0  0  0  0
    0.3730   -0.4710    3.9931 H   0  0  0  0  0  0  0  0  0  0  0  0
   -1.2003   -1.1863    4.3485 H   0  0  0  0  0  0  0  0  0  0  0  0
   -0.0416   -2.1358    3.3966 H   0  0  0  0  0  0  0  0  0  0  0  0
   -2.2268   -2.3244    2.0566 H   0  0  0  0  0  0  0  0  0  0  0  0
   -3.1045   -0.9263    2.7604 H   0  0  0  0  0  0  0  0  0  0  0  0
   -2.7346   -1.7465   -0.0920 H   0  0  0  0  0  0  0  0  0  0  0  0
   -4.0623   -0.8407    0.6749 H   0  0  0  0  0  0  0  0  0  0  0  0
   -2.1928    2.3894    1.0748 H   0  0  0  0  0  0  0  0  0  0  0  0
   -3.4538    1.3285    1.7719 H   0  0  0  0  0  0  0  0  0  0  0  0
   -3.0887    0.3163   -3.4163 H   0  0  0  0  0  0  0  0  0  0  0  0
   -0.9636   -0.8183   -3.4540 H   0  0  0  0  0  0  0  0  0  0  0  0
   -1.4894   -1.7018   -1.9962 H   0  0  0  0  0  0  0  0  0  0  0  0
   -0.1919    1.0780   -2.1035 H   0  0  0  0  0  0  0  0  0  0  0  0
    0.6420   -0.3835   -1.6391 H   0  0  0  0  0  0  0  0  0  0  0  0
   -0.5065    1.4511    0.0436 H   0  0  0  0  0  0  0  0  0  0  0  0
    3.0010   -0.4123   -2.2245 H   0  0  0  0  0  0  0  0  0  0  0  0
    4.5086   -2.5949   -2.1646 H   0  0  0  0  0  0  0  0  0  0  0  0
    3.8789   -1.5384    1.8140 H   0  0  0  0  0  0  0  0  0  0  0  0
  1  2  1  0
  2  3  2  0
  2  4  1  0
  4  5  1  0
  5  6  1  0
  7  6  1  1
  7  8  1  0
  7  9  1  0
  9 10  1  0
  9 11  1  0
 11 12  1  0
 13 12  1  1
 13 14  1  0
 14 15  1  0
 15 16  1  0
 16 17  2  0
 16 18  1  0
 18 19  2  0
 19 20  1  0
 20 21  1  0
 21 22  1  0
  5 23  1  0
 23 24  1  0
 24 25  2  0
 25 26  1  0
 26 27  1  0
 22  7  1  0
 27 23  2  0
 18 13  1  0
 22 13  1  0
  1 28  1  0
  1 29  1  0
  1 30  1  0
  5 31  1  1
  6 32  1  0
  6 33  1  0
  8 34  1  0
  8 35  1  0
  8 36  1  0
  9 37  1  1
 10 38  1  0
 10 39  1  0
 10 40  1  0
 11 41  1  0
 11 42  1  0
 12 43  1  0
 12 44  1  0
 14 45  1  0
 14 46  1  0
 19 47  1  0
 20 48  1  0
 20 49  1  0
 21 50  1  0
 21 51  1  0
 22 52  1  1
 24 53  1  0
 25 54  1  0
 27 55  1  0
M  END

     RDKit          3D

 46 48  0  0  0  0  0  0  0  0999 V2000
    5.3380    2.0538    0.0947 C   0  0  0  0  0  0  0  0  0  0  0  0
    3.9048    1.6512    0.3324 C   0  0  0  0  0  0  0  0  0  0  0  0
    3.3061    1.7898    1.7117 C   0  0  0  0  0  0  0  0  0  0  0  0
    3.1913    1.1744   -0.7127 C   0  0  0  0  0  0  0  0  0  0  0  0
    1.7612    0.7039   -0.6272 C   0  0  0  0  0  0  0  0  0  0  0  0
    1.5407   -0.7824   -0.3667 C   0  0  0  0  0  0  0  0  0  0  0  0
    2.5806   -1.7373   -0.2344 C   0  0  0  0  0  0  0  0  0  0  0  0
    3.9237   -1.3649   -0.2742 O   0  0  0  0  0  0  0  0  0  0  0  0
    2.2676   -3.0908   -0.0623 C   0  0  0  0  0  0  0  0  0  0  0  0
    0.9410   -3.5261   -0.0168 C   0  0  0  0  0  0  0  0  0  0  0  0
    0.6699   -4.8845    0.1551 O   0  0  0  0  0  0  0  0  0  0  0  0
   -0.1042   -2.5918   -0.1377 C   0  0  0  0  0  0  0  0  0  0  0  0
    0.2019   -1.2275   -0.3072 C   0  0  0  0  0  0  0  0  0  0  0  0
   -0.8388   -0.2940   -0.4145 O   0  0  0  0  0  0  0  0  0  0  0  0
   -2.1752   -0.6612   -0.7567 C   0  0  2  0  0  0  0  0  0  0  0  0
   -3.0687    0.5588   -0.5927 C   0  0  0  0  0  0  0  0  0  0  0  0
   -4.1340    0.6258    0.3314 C   0  0  0  0  0  0  0  0  0  0  0  0
   -4.9020    1.7911    0.4424 C   0  0  0  0  0  0  0  0  0  0  0  0
   -4.6049    2.9118   -0.3409 C   0  0  0  0  0  0  0  0  0  0  0  0
   -5.3542    4.0824   -0.2262 O   0  0  0  0  0  0  0  0  0  0  0  0
   -3.5484    2.8581   -1.2501 C   0  0  0  0  0  0  0  0  0  0  0  0
   -2.7905    1.6906   -1.3825 C   0  0  0  0  0  0  0  0  0  0  0  0
   -2.5946   -1.9171    0.0466 C   0  0  1  0  0  0  0  0  0  0  0  0
   -3.8448   -2.3992   -0.3862 O   0  0  0  0  0  0  0  0  0  0  0  0
   -1.5337   -2.9850   -0.0667 C   0  0  0  0  0  0  0  0  0  0  0  0
   -1.8678   -4.2010   -0.0258 O   0  0  0  0  0  0  0  0  0  0  0  0
    5.3864    2.7912   -0.7332 H   0  0  0  0  0  0  0  0  0  0  0  0
    5.7872    2.5139    0.9964 H   0  0  0  0  0  0  0  0  0  0  0  0
    5.9397    1.1627   -0.1806 H   0  0  0  0  0  0  0  0  0  0  0  0
    2.8950    0.8111    2.0484 H   0  0  0  0  0  0  0  0  0  0  0  0
    2.4952    2.5504    1.6936 H   0  0  0  0  0  0  0  0  0  0  0  0
    4.0676    2.1158    2.4537 H   0  0  0  0  0  0  0  0  0  0  0  0
    3.6734    1.0857   -1.6838 H   0  0  0  0  0  0  0  0  0  0  0  0
    1.2900    0.9437   -1.6032 H   0  0  0  0  0  0  0  0  0  0  0  0
    1.2073    1.3002    0.1268 H   0  0  0  0  0  0  0  0  0  0  0  0
    4.6706   -2.0459   -0.1905 H   0  0  0  0  0  0  0  0  0  0  0  0
    3.0668   -3.8142    0.0319 H   0  0  0  0  0  0  0  0  0  0  0  0
    1.4119   -5.5706    0.2418 H   0  0  0  0  0  0  0  0  0  0  0  0
   -2.1811   -0.9394   -1.8359 H   0  0  0  0  0  0  0  0  0  0  0  0
   -4.3895   -0.2104    0.9643 H   0  0  0  0  0  0  0  0  0  0  0  0
   -5.7176    1.8258    1.1529 H   0  0  0  0  0  0  0  0  0  0  0  0
   -6.1513    4.1415    0.3950 H   0  0  0  0  0  0  0  0  0  0  0  0
   -3.3175    3.7230   -1.8577 H   0  0  0  0  0  0  0  0  0  0  0  0
   -1.9757    1.6682   -2.0949 H   0  0  0  0  0  0  0  0  0  0  0  0
   -2.6615   -1.6579    1.1256 H   0  0  0  0  0  0  0  0  0  0  0  0
   -3.7620   -2.6236   -1.3511 H   0  0  0  0  0  0  0  0  0  0  0  0
  1  2  1  0
  2  3  1  0
  2  4  2  3
  4  5  1  0
  5  6  1  0
  6  7  2  0
  7  8  1  0
  7  9  1  0
  9 10  2  0
 10 11  1  0
 10 12  1  0
 12 13  2  0
 13 14  1  0
 14 15  1  0
 15 16  1  0
 16 17  2  0
 17 18  1  0
 18 19  2  0
 19 20  1  0
 19 21  1  0
 21 22  2  0
 15 23  1  0
 23 24  1  0
 23 25  1  0
 25 26  2  0
 13  6  1  0
 22 16  1  0
 25 12  1  0
  1 27  1  0
  1 28  1  0
  1 29  1  0
  3 30  1  0
  3 31  1  0
  3 32  1  0
  4 33  1  0
  5 34  1  0
  5 35  1  0
  8 36  1  0
  9 37  1  0
 11 38  1  0
 15 39  1  6
 17 40  1  0
 18 41  1  0
 20 42  1  0
 21 43  1  0
 22 44  1  0
 23 45  1  1
 24 46  1  0
M  END

     RDKit          3D

 51 54  0  0  0  0  0  0  0  0999 V2000
    5.1678   -2.8987    0.1537 C   0  0  0  0  0  0  0  0  0  0  0  0
    4.3914   -1.6391   -0.0615 C   0  0  0  0  0  0  0  0  0  0  0  0
    4.8820   -0.5649   -0.6434 O   0  0  0  0  0  0  0  0  0  0  0  0
    3.9646    0.3812   -0.6286 C   0  0  0  0  0  0  0  0  0  0  0  0
    2.8106   -0.1109   -0.0514 C   0  0  0  0  0  0  0  0  0  0  0  0
    3.0988   -1.3895    0.3414 C   0  0  0  0  0  0  0  0  0  0  0  0
    2.1635   -2.1861    1.1568 C   0  0  0  0  0  0  0  0  0  0  0  0
    2.4326   -3.3772    1.4644 O   0  0  0  0  0  0  0  0  0  0  0  0
    0.8796   -1.5417    1.6330 C   0  0  0  0  0  0  0  0  0  0  0  0
    0.4258   -0.4385    0.6263 C   0  0  2  0  0  0  0  0  0  0  0  0
    1.5726    0.6077    0.4170 C   0  0  2  0  0  0  0  0  0  0  0  0
    1.1532    1.8043   -0.4953 C   0  0  2  0  0  0  0  0  0  0  0  0
    1.0424    2.9892    0.2461 O   0  0  0  0  0  0  0  0  0  0  0  0
   -0.1717    1.5539   -1.2310 C   0  0  0  0  0  0  0  0  0  0  0  0
   -1.3772    1.1508   -0.3145 C   0  0  1  0  0  0  0  0  0  0  0  0
   -2.5923    0.5802   -1.1753 C   0  0  0  0  0  0  0  0  0  0  0  0
   -2.1915   -0.6288   -2.0758 C   0  0  0  0  0  0  0  0  0  0  0  0
   -3.1070    1.6857   -2.1336 C   0  0  0  0  0  0  0  0  0  0  0  0
   -3.8006    0.1595   -0.2688 C   0  0  0  0  0  0  0  0  0  0  0  0
   -3.4372   -0.2042    1.1737 C   0  0  0  0  0  0  0  0  0  0  0  0
   -2.0330   -0.7869    1.2947 C   0  0  0  0  0  0  0  0  0  0  0  0
   -0.9387    0.2686    0.9467 C   0  0  1  0  0  0  0  0  0  0  0  0
   -0.7855    1.1748    2.2150 C   0  0  0  0  0  0  0  0  0  0  0  0
    6.1644   -2.7961   -0.3215 H   0  0  0  0  0  0  0  0  0  0  0  0
    4.6273   -3.7539   -0.3050 H   0  0  0  0  0  0  0  0  0  0  0  0
    5.3025   -3.0807    1.2440 H   0  0  0  0  0  0  0  0  0  0  0  0
    4.1155    1.3835   -0.9979 H   0  0  0  0  0  0  0  0  0  0  0  0
    0.0960   -2.3290    1.7128 H   0  0  0  0  0  0  0  0  0  0  0  0
    1.0561   -1.0892    2.6343 H   0  0  0  0  0  0  0  0  0  0  0  0
    0.2971   -0.9743   -0.3423 H   0  0  0  0  0  0  0  0  0  0  0  0
    1.8521    1.0045    1.4137 H   0  0  0  0  0  0  0  0  0  0  0  0
    1.9105    1.9727   -1.2893 H   0  0  0  0  0  0  0  0  0  0  0  0
    1.9537    3.1839    0.6020 H   0  0  0  0  0  0  0  0  0  0  0  0
   -0.4314    2.4779   -1.7851 H   0  0  0  0  0  0  0  0  0  0  0  0
    0.0320    0.7678   -1.9817 H   0  0  0  0  0  0  0  0  0  0  0  0
   -1.7598    2.1122    0.0974 H   0  0  0  0  0  0  0  0  0  0  0  0
   -1.5490   -0.3318   -2.9267 H   0  0  0  0  0  0  0  0  0  0  0  0
   -3.0936   -1.0827   -2.5354 H   0  0  0  0  0  0  0  0  0  0  0  0
   -1.6643   -1.4219   -1.5132 H   0  0  0  0  0  0  0  0  0  0  0  0
   -2.3597    1.9305   -2.9199 H   0  0  0  0  0  0  0  0  0  0  0  0
   -4.0305    1.3540   -2.6527 H   0  0  0  0  0  0  0  0  0  0  0  0
   -3.3419    2.6221   -1.5750 H   0  0  0  0  0  0  0  0  0  0  0  0
   -4.3453   -0.7036   -0.7118 H   0  0  0  0  0  0  0  0  0  0  0  0
   -4.5488    0.9797   -0.2191 H   0  0  0  0  0  0  0  0  0  0  0  0
   -4.1732   -0.9180    1.5784 H   0  0  0  0  0  0  0  0  0  0  0  0
   -3.5219    0.7060    1.7910 H   0  0  0  0  0  0  0  0  0  0  0  0
   -1.9597   -1.6795    0.6510 H   0  0  0  0  0  0  0  0  0  0  0  0
   -1.9149   -1.1628    2.3325 H   0  0  0  0  0  0  0  0  0  0  0  0
   -0.5863    0.5673    3.1141 H   0  0  0  0  0  0  0  0  0  0  0  0
    0.0199    1.9131    2.1512 H   0  0  0  0  0  0  0  0  0  0  0  0
   -1.6971    1.7590    2.4162 H   0  0  0  0  0  0  0  0  0  0  0  0
  1  2  1  0
  2  3  1  0
  3  4  1  0
  4  5  2  0
  5  6  1  0
  6  7  1  0
  7  8  2  0
  7  9  1  0
  9 10  1  0
 10 11  1  0
 11 12  1  0
 12 13  1  0
 12 14  1  0
 14 15  1  0
 15 16  1  0
 16 17  1  0
 16 18  1  0
 16 19  1  0
 19 20  1  0
 20 21  1  0
 21 22  1  0
 22 23  1  1
  6  2  2  0
 22 10  1  0
 11  5  1  0
 22 15  1  0
  1 24  1  0
  1 25  1  0
  1 26  1  0
  4 27  1  0
  9 28  1  0
  9 29  1  0
 10 30  1  6
 11 31  1  1
 12 32  1  6
 13 33  1  0
 14 34  1  0
 14 35  1  0
 15 36  1  1
 17 37  1  0
 17 38  1  0
 17 39  1  0
 18 40  1  0
 18 41  1  0
 18 42  1  0
 19 43  1  0
 19 44  1  0
 20 45  1  0
 20 46  1  0
 21 47  1  0
 21 48  1  0
 23 49  1  0
 23 50  1  0
 23 51  1  0
M  END

     RDKit          3D

 38 40  0  0  0  0  0  0  0  0999 V2000
   -6.2983   -1.3752    1.5999 C   0  0  0  0  0  0  0  0  0  0  0  0
   -4.8972   -1.1799    1.7564 O   0  0  0  0  0  0  0  0  0  0  0  0
   -4.0615   -0.6093    0.7820 C   0  0  0  0  0  0  0  0  0  0  0  0
   -4.5595   -0.0717   -0.4209 C   0  0  0  0  0  0  0  0  0  0  0  0
   -3.6888    0.4562   -1.3877 C   0  0  0  0  0  0  0  0  0  0  0  0
   -4.2167    0.9969   -2.5643 O   0  0  0  0  0  0  0  0  0  0  0  0
   -2.2932    0.4349   -1.1591 C   0  0  0  0  0  0  0  0  0  0  0  0
   -1.3504    0.8844   -2.1077 C   0  0  0  0  0  0  0  0  0  0  0  0
   -1.7200    1.3296   -3.2291 O   0  0  0  0  0  0  0  0  0  0  0  0
    0.0197    0.8181   -1.8065 C   0  0  0  0  0  0  0  0  0  0  0  0
    0.9746    1.1874   -2.7545 O   0  0  0  0  0  0  0  0  0  0  0  0
    0.4179    0.3431   -0.5394 C   0  0  0  0  0  0  0  0  0  0  0  0
    1.8425    0.2712   -0.1343 C   0  0  0  0  0  0  0  0  0  0  0  0
    2.2822   -0.8008    0.6547 C   0  0  0  0  0  0  0  0  0  0  0  0
    3.6188   -0.9017    1.0480 C   0  0  0  0  0  0  0  0  0  0  0  0
    4.5462    0.0863    0.6613 C   0  0  0  0  0  0  0  0  0  0  0  0
    5.9025    0.0258    1.0196 O   0  0  0  0  0  0  0  0  0  0  0  0
    6.4654   -0.9840    1.8554 C   0  0  0  0  0  0  0  0  0  0  0  0
    4.1066    1.1796   -0.1015 C   0  0  0  0  0  0  0  0  0  0  0  0
    5.0171    2.1651   -0.4752 O   0  0  0  0  0  0  0  0  0  0  0  0
    2.7580    1.2827   -0.4764 C   0  0  0  0  0  0  0  0  0  0  0  0
   -0.5004   -0.0902    0.3193 O   0  0  0  0  0  0  0  0  0  0  0  0
   -1.8032   -0.0793    0.0636 C   0  0  0  0  0  0  0  0  0  0  0  0
   -2.6855   -0.5919    1.0165 C   0  0  0  0  0  0  0  0  0  0  0  0
   -6.6962   -1.8986    2.4951 H   0  0  0  0  0  0  0  0  0  0  0  0
   -6.8059   -0.3930    1.5117 H   0  0  0  0  0  0  0  0  0  0  0  0
   -6.5015   -2.0048    0.7048 H   0  0  0  0  0  0  0  0  0  0  0  0
   -5.6231   -0.0617   -0.6182 H   0  0  0  0  0  0  0  0  0  0  0  0
   -5.2147    1.0171   -2.7442 H   0  0  0  0  0  0  0  0  0  0  0  0
    0.7210    1.5192   -3.6793 H   0  0  0  0  0  0  0  0  0  0  0  0
    1.5885   -1.5837    0.9538 H   0  0  0  0  0  0  0  0  0  0  0  0
    3.9235   -1.7540    1.6416 H   0  0  0  0  0  0  0  0  0  0  0  0
    6.3236   -1.9854    1.3880 H   0  0  0  0  0  0  0  0  0  0  0  0
    7.5538   -0.7947    1.9668 H   0  0  0  0  0  0  0  0  0  0  0  0
    5.9903   -0.9616    2.8664 H   0  0  0  0  0  0  0  0  0  0  0  0
    4.7341    2.9641   -1.0313 H   0  0  0  0  0  0  0  0  0  0  0  0
    2.4278    2.1608   -1.0166 H   0  0  0  0  0  0  0  0  0  0  0  0
   -2.2977   -1.0011    1.9414 H   0  0  0  0  0  0  0  0  0  0  0  0
  1  2  1  0
  2  3  1  0
  3  4  2  0
  4  5  1  0
  5  6  1  0
  5  7  2  0
  7  8  1  0
  8  9  2  0
  8 10  1  0
 10 11  1  0
 10 12  2  0
 12 13  1  0
 13 14  2  0
 14 15  1  0
 15 16  2  0
 16 17  1  0
 17 18  1  0
 16 19  1  0
 19 20  1  0
 19 21  2  0
 12 22  1  0
 22 23  1  0
 23 24  2  0
 24  3  1  0
 23  7  1  0
 21 13  1  0
  1 25  1  0
  1 26  1  0
  1 27  1  0
  4 28  1  0
  6 29  1  0
 11 30  1  0
 14 31  1  0
 15 32  1  0
 18 33  1  0
 18 34  1  0
 18 35  1  0
 20 36  1  0
 21 37  1  0
 24 38  1  0
M  END

     RDKit          3D

 44 45  0  0  0  0  0  0  0  0999 V2000
   -5.0442    2.0973    0.7904 C   0  0  0  0  0  0  0  0  0  0  0  0
   -4.5414    0.6783    0.7189 C   0  0  0  0  0  0  0  0  0  0  0  0
   -3.8934    0.0598    1.9340 C   0  0  0  0  0  0  0  0  0  0  0  0
   -4.6923   -0.0010   -0.4403 C   0  0  0  0  0  0  0  0  0  0  0  0
   -4.2206   -1.4176   -0.6809 C   0  0  0  0  0  0  0  0  0  0  0  0
   -3.0718   -1.4533   -1.6977 C   0  0  0  0  0  0  0  0  0  0  0  0
   -1.8149   -0.7975   -1.1616 C   0  0  0  0  0  0  0  0  0  0  0  0
   -1.3948    0.5486   -1.7039 C   0  0  0  0  0  0  0  0  0  0  0  0
   -1.0908   -1.4361   -0.2155 C   0  0  0  0  0  0  0  0  0  0  0  0
    0.1911   -0.9007    0.3582 C   0  0  0  0  0  0  0  0  0  0  0  0
    1.2268   -1.0225   -0.6146 O   0  0  0  0  0  0  0  0  0  0  0  0
    2.5561   -0.6226   -0.4180 C   0  0  0  0  0  0  0  0  0  0  0  0
    3.4639   -0.8056   -1.4705 C   0  0  0  0  0  0  0  0  0  0  0  0
    4.7996   -0.4156   -1.3354 C   0  0  0  0  0  0  0  0  0  0  0  0
    5.2427    0.1589   -0.1362 C   0  0  0  0  0  0  0  0  0  0  0  0
    6.5699    0.5654    0.0349 C   0  0  0  0  0  0  0  0  0  0  0  0
    6.9582    1.1388    1.2458 C   0  0  0  0  0  0  0  0  0  0  0  0
    6.0057    1.2933    2.2593 C   0  0  0  0  0  0  0  0  0  0  0  0
    6.3354    1.8081    3.3599 O   0  0  0  0  0  0  0  0  0  0  0  0
    4.7497    0.8975    2.0687 O   0  0  0  0  0  0  0  0  0  0  0  0
    4.3374    0.3453    0.9307 C   0  0  0  0  0  0  0  0  0  0  0  0
    3.0019   -0.0460    0.7883 C   0  0  0  0  0  0  0  0  0  0  0  0
   -6.1332    2.1231    0.5720 H   0  0  0  0  0  0  0  0  0  0  0  0
   -4.5076    2.7211    0.0440 H   0  0  0  0  0  0  0  0  0  0  0  0
   -4.8834    2.5425    1.7953 H   0  0  0  0  0  0  0  0  0  0  0  0
   -2.8533   -0.2459    1.6963 H   0  0  0  0  0  0  0  0  0  0  0  0
   -3.8500    0.7745    2.7821 H   0  0  0  0  0  0  0  0  0  0  0  0
   -4.4802   -0.8225    2.2663 H   0  0  0  0  0  0  0  0  0  0  0  0
   -5.1600    0.5030   -1.2828 H   0  0  0  0  0  0  0  0  0  0  0  0
   -3.9183   -1.9360    0.2519 H   0  0  0  0  0  0  0  0  0  0  0  0
   -5.0748   -1.9946   -1.0966 H   0  0  0  0  0  0  0  0  0  0  0  0
   -2.8485   -2.5112   -1.9569 H   0  0  0  0  0  0  0  0  0  0  0  0
   -3.4029   -0.9626   -2.6392 H   0  0  0  0  0  0  0  0  0  0  0  0
   -0.3822    0.4818   -2.1511 H   0  0  0  0  0  0  0  0  0  0  0  0
   -2.0953    0.9061   -2.4866 H   0  0  0  0  0  0  0  0  0  0  0  0
   -1.3935    1.3006   -0.8876 H   0  0  0  0  0  0  0  0  0  0  0  0
   -1.4287   -2.4030    0.1497 H   0  0  0  0  0  0  0  0  0  0  0  0
    0.0632    0.1605    0.6660 H   0  0  0  0  0  0  0  0  0  0  0  0
    0.4577   -1.5012    1.2550 H   0  0  0  0  0  0  0  0  0  0  0  0
    3.1302   -1.2548   -2.3974 H   0  0  0  0  0  0  0  0  0  0  0  0
    5.4836   -0.5676   -2.1591 H   0  0  0  0  0  0  0  0  0  0  0  0
    7.2978    0.4450   -0.7596 H   0  0  0  0  0  0  0  0  0  0  0  0
    7.9827    1.4592    1.3914 H   0  0  0  0  0  0  0  0  0  0  0  0
    2.3223    0.1090    1.6150 H   0  0  0  0  0  0  0  0  0  0  0  0
  1  2  1  0
  2  3  1  0
  2  4  2  3
  4  5  1  0
  5  6  1  0
  6  7  1  0
  7  8  1  0
  7  9  2  0
  9 10  1  0
 10 11  1  0
 11 12  1  0
 12 13  2  0
 13 14  1  0
 14 15  2  0
 15 16  1  0
 16 17  2  0
 17 18  1  0
 18 19  2  0
 18 20  1  0
 20 21  1  0
 21 22  2  0
 22 12  1  0
 21 15  1  0
  1 23  1  0
  1 24  1  0
  1 25  1  0
  3 26  1  0
  3 27  1  0
  3 28  1  0
  4 29  1  0
  5 30  1  0
  5 31  1  0
  6 32  1  0
  6 33  1  0
  8 34  1  0
  8 35  1  0
  8 36  1  0
  9 37  1  0
 10 38  1  0
 10 39  1  0
 13 40  1  0
 14 41  1  0
 16 42  1  0
 17 43  1  0
 22 44  1  0
M  END

     RDKit          3D

 51 53  0  0  0  0  0  0  0  0999 V2000
    3.5838    1.0954   -2.6652 C   0  0  0  0  0  0  0  0  0  0  0  0
    4.1049    1.3338   -1.3628 O   0  0  0  0  0  0  0  0  0  0  0  0
    3.4124    1.0791   -0.1685 C   0  0  0  0  0  0  0  0  0  0  0  0
    2.1147    0.5344   -0.1520 C   0  0  0  0  0  0  0  0  0  0  0  0
    1.4533    0.2918    1.0661 C   0  0  0  0  0  0  0  0  0  0  0  0
    0.0544   -0.3049    1.0864 C   0  0  1  0  0  0  0  0  0  0  0  0
   -0.9128    0.6084    0.3413 C   0  0  0  0  0  0  0  0  0  0  0  0
   -0.9288    1.9833    0.6419 C   0  0  0  0  0  0  0  0  0  0  0  0
   -1.8236    2.8476   -0.0008 C   0  0  0  0  0  0  0  0  0  0  0  0
   -1.8084    4.2098    0.2955 O   0  0  0  0  0  0  0  0  0  0  0  0
   -2.7416    2.3507   -0.9371 C   0  0  0  0  0  0  0  0  0  0  0  0
   -3.6301    3.2510   -1.5516 O   0  0  0  0  0  0  0  0  0  0  0  0
   -4.6609    2.8711   -2.4601 C   0  0  0  0  0  0  0  0  0  0  0  0
   -2.7536    0.9748   -1.2181 C   0  0  0  0  0  0  0  0  0  0  0  0
   -1.8660    0.1002   -0.5691 C   0  0  0  0  0  0  0  0  0  0  0  0
   -1.9145   -1.3651   -0.9166 C   0  0  0  0  0  0  0  0  0  0  0  0
   -1.3983   -2.2592    0.2317 C   0  0  1  0  0  0  0  0  0  0  0  0
   -2.2713   -2.0913    1.3279 O   0  0  0  0  0  0  0  0  0  0  0  0
   -1.4577   -3.7323   -0.2666 C   0  0  0  0  0  0  0  0  0  0  0  0
   -1.4873   -4.6323    0.8045 O   0  0  0  0  0  0  0  0  0  0  0  0
    0.0625   -1.7840    0.5723 C   0  0  2  0  0  0  0  0  0  0  0  0
    0.8051   -2.7179    1.5683 C   0  0  0  0  0  0  0  0  0  0  0  0
    2.1691   -2.4001    1.6141 O   0  0  0  0  0  0  0  0  0  0  0  0
    2.0944    0.6166    2.2711 C   0  0  0  0  0  0  0  0  0  0  0  0
    3.3787    1.1591    2.2590 C   0  0  0  0  0  0  0  0  0  0  0  0
    4.0378    1.3883    1.0456 C   0  0  0  0  0  0  0  0  0  0  0  0
    5.3177    1.9378    1.0371 O   0  0  0  0  0  0  0  0  0  0  0  0
    3.3580    0.0150   -2.7875 H   0  0  0  0  0  0  0  0  0  0  0  0
    4.3444    1.3866   -3.4181 H   0  0  0  0  0  0  0  0  0  0  0  0
    2.6685    1.7038   -2.8267 H   0  0  0  0  0  0  0  0  0  0  0  0
    1.6117    0.2947   -1.0766 H   0  0  0  0  0  0  0  0  0  0  0  0
   -0.3161   -0.3234    2.1346 H   0  0  0  0  0  0  0  0  0  0  0  0
   -0.2423    2.3865    1.3827 H   0  0  0  0  0  0  0  0  0  0  0  0
   -1.1478    4.6069    0.9501 H   0  0  0  0  0  0  0  0  0  0  0  0
   -4.2229    2.3646   -3.3491 H   0  0  0  0  0  0  0  0  0  0  0  0
   -5.3746    2.1947   -1.9411 H   0  0  0  0  0  0  0  0  0  0  0  0
   -5.2029    3.7844   -2.7895 H   0  0  0  0  0  0  0  0  0  0  0  0
   -3.4570    0.5720   -1.9337 H   0  0  0  0  0  0  0  0  0  0  0  0
   -2.9671   -1.6491   -1.1505 H   0  0  0  0  0  0  0  0  0  0  0  0
   -1.3084   -1.5286   -1.8394 H   0  0  0  0  0  0  0  0  0  0  0  0
   -1.8739   -2.5369    2.1181 H   0  0  0  0  0  0  0  0  0  0  0  0
   -2.3714   -3.8968   -0.8867 H   0  0  0  0  0  0  0  0  0  0  0  0
   -0.5737   -3.9442   -0.9088 H   0  0  0  0  0  0  0  0  0  0  0  0
   -1.4505   -5.5418    0.4090 H   0  0  0  0  0  0  0  0  0  0  0  0
    0.6405   -1.8206   -0.3783 H   0  0  0  0  0  0  0  0  0  0  0  0
    0.3760   -2.6264    2.5884 H   0  0  0  0  0  0  0  0  0  0  0  0
    0.7208   -3.7754    1.2479 H   0  0  0  0  0  0  0  0  0  0  0  0
    2.5811   -3.0366    2.2526 H   0  0  0  0  0  0  0  0  0  0  0  0
    1.6038    0.4419    3.2197 H   0  0  0  0  0  0  0  0  0  0  0  0
    3.8693    1.4006    3.1932 H   0  0  0  0  0  0  0  0  0  0  0  0
    5.8005    2.1820    1.8950 H   0  0  0  0  0  0  0  0  0  0  0  0
  1  2  1  0
  2  3  1  0
  3  4  2  0
  4  5  1  0
  5  6  1  0
  6  7  1  0
  7  8  2  0
  8  9  1  0
  9 10  1  0
  9 11  2  0
 11 12  1  0
 12 13  1  0
 11 14  1  0
 14 15  2  0
 15 16  1  0
 16 17  1  0
 17 18  1  1
 17 19  1  0
 19 20  1  0
 17 21  1  0
 21 22  1  0
 22 23  1  0
  5 24  2  0
 24 25  1  0
 25 26  2  0
 26 27  1  0
 26  3  1  0
 21  6  1  0
 15  7  1  0
  1 28  1  0
  1 29  1  0
  1 30  1  0
  4 31  1  0
  6 32  1  1
  8 33  1  0
 10 34  1  0
 13 35  1  0
 13 36  1  0
 13 37  1  0
 14 38  1  0
 16 39  1  0
 16 40  1  0
 18 41  1  0
 19 42  1  0
 19 43  1  0
 20 44  1  0
 21 45  1  6
 22 46  1  0
 22 47  1  0
 23 48  1  0
 24 49  1  0
 25 50  1  0
 27 51  1  0
M  END

     RDKit          3D

 44 48  0  0  0  0  0  0  0  0999 V2000
   -5.9592   -0.4226    1.9611 C   0  0  0  0  0  0  0  0  0  0  0  0
   -5.4480    0.0113    0.7048 O   0  0  0  0  0  0  0  0  0  0  0  0
   -4.0858    0.0414    0.3618 C   0  0  0  0  0  0  0  0  0  0  0  0
   -3.0787   -0.2592    1.2899 C   0  0  0  0  0  0  0  0  0  0  0  0
   -1.7224   -0.2701    0.9113 C   0  0  0  0  0  0  0  0  0  0  0  0
   -0.7316   -0.6593    1.8277 C   0  0  0  0  0  0  0  0  0  0  0  0
   -1.0624   -0.9882    3.0044 O   0  0  0  0  0  0  0  0  0  0  0  0
    0.5836   -0.7260    1.4535 N   0  0  0  0  0  0  0  0  0  0  0  0
    1.4624   -1.5570    2.2906 C   0  0  0  0  0  0  0  0  0  0  0  0
    0.9949   -0.2195    0.2336 C   0  0  0  0  0  0  0  0  0  0  0  0
    2.3690    0.0496   -0.0700 C   0  0  0  0  0  0  0  0  0  0  0  0
    3.3519    0.2883    0.9327 C   0  0  0  0  0  0  0  0  0  0  0  0
    4.6789    0.4344    0.5453 C   0  0  0  0  0  0  0  0  0  0  0  0
    5.0544    0.4224   -0.7521 C   0  0  0  0  0  0  0  0  0  0  0  0
    4.1307    0.3024   -1.7839 C   0  0  0  0  0  0  0  0  0  0  0  0
    2.7695    0.1589   -1.4393 C   0  0  0  0  0  0  0  0  0  0  0  0
    1.8077    0.1589   -2.4442 C   0  0  0  0  0  0  0  0  0  0  0  0
    0.4569    0.1502   -2.1209 C   0  0  0  0  0  0  0  0  0  0  0  0
    0.0209    0.0080   -0.7809 C   0  0  0  0  0  0  0  0  0  0  0  0
   -1.3571    0.0304   -0.4216 C   0  0  0  0  0  0  0  0  0  0  0  0
   -2.3843    0.3778   -1.3338 C   0  0  0  0  0  0  0  0  0  0  0  0
   -3.7384    0.3696   -0.9511 C   0  0  0  0  0  0  0  0  0  0  0  0
   -4.7735    0.6738   -1.8515 O   0  0  0  0  0  0  0  0  0  0  0  0
   -4.5913    0.9523   -3.2359 C   0  0  0  0  0  0  0  0  0  0  0  0
    6.4260    0.5564   -0.8381 O   0  0  0  0  0  0  0  0  0  0  0  0
    6.9462    0.6596    0.4936 C   0  0  0  0  0  0  0  0  0  0  0  0
    5.7946    0.5820    1.3425 O   0  0  0  0  0  0  0  0  0  0  0  0
   -5.6380   -1.4674    2.1683 H   0  0  0  0  0  0  0  0  0  0  0  0
   -7.0684   -0.3934    1.9296 H   0  0  0  0  0  0  0  0  0  0  0  0
   -5.6126    0.2596    2.7652 H   0  0  0  0  0  0  0  0  0  0  0  0
   -3.3551   -0.5082    2.3046 H   0  0  0  0  0  0  0  0  0  0  0  0
    0.9253   -2.4717    2.6100 H   0  0  0  0  0  0  0  0  0  0  0  0
    2.3419   -1.9305    1.7235 H   0  0  0  0  0  0  0  0  0  0  0  0
    1.7732   -1.0035    3.2008 H   0  0  0  0  0  0  0  0  0  0  0  0
    3.1098    0.3847    1.9763 H   0  0  0  0  0  0  0  0  0  0  0  0
    4.4552    0.3431   -2.8178 H   0  0  0  0  0  0  0  0  0  0  0  0
    2.1014    0.2446   -3.4837 H   0  0  0  0  0  0  0  0  0  0  0  0
   -0.2206    0.2148   -2.9530 H   0  0  0  0  0  0  0  0  0  0  0  0
   -2.1538    0.6883   -2.3369 H   0  0  0  0  0  0  0  0  0  0  0  0
   -3.9792    1.8715   -3.3672 H   0  0  0  0  0  0  0  0  0  0  0  0
   -5.5843    1.1150   -3.7008 H   0  0  0  0  0  0  0  0  0  0  0  0
   -4.1089    0.0852   -3.7374 H   0  0  0  0  0  0  0  0  0  0  0  0
    7.4715    1.6314    0.6317 H   0  0  0  0  0  0  0  0  0  0  0  0
    7.6275   -0.1891    0.7054 H   0  0  0  0  0  0  0  0  0  0  0  0
  1  2  1  0
  2  3  1  0
  3  4  2  0
  4  5  1  0
  5  6  1  0
  6  7  2  0
  6  8  1  0
  8  9  1  0
  8 10  1  0
 10 11  2  0
 11 12  1  0
 12 13  2  0
 13 14  1  0
 14 15  2  0
 15 16  1  0
 16 17  2  0
 17 18  1  0
 18 19  2  0
 19 20  1  0
 20 21  1  0
 21 22  2  0
 22 23  1  0
 23 24  1  0
 14 25  1  0
 25 26  1  0
 26 27  1  0
 22  3  1  0
 20  5  2  0
 19 10  1  0
 16 11  1  0
 27 13  1  0
  1 28  1  0
  1 29  1  0
  1 30  1  0
  4 31  1  0
  9 32  1  0
  9 33  1  0
  9 34  1  0
 12 35  1  0
 15 36  1  0
 17 37  1  0
 18 38  1  0
 21 39  1  0
 24 40  1  0
 24 41  1  0
 24 42  1  0
 26 43  1  0
 26 44  1  0
M  END

     RDKit          3D

 17 17  0  0  0  0  0  0  0  0999 V2000
   -3.2380   -0.4215   -0.0421 N   0  0  0  0  0  0  0  0  0  0  0  0
   -2.0708    0.2981    0.3524 C   0  0  0  0  0  0  0  0  0  0  0  0
   -2.1500    1.5357    0.5785 O   0  0  0  0  0  0  0  0  0  0  0  0
   -0.8189   -0.3857    0.4896 N   0  0  0  0  0  0  0  0  0  0  0  0
    0.4119    0.3225    0.8412 C   0  0  2  0  0  0  0  0  0  0  0  0
    0.9507    1.0087   -0.3302 N   0  0  0  0  0  0  0  0  0  0  0  0
    2.2356    0.4673   -0.6030 C   0  0  0  0  0  0  0  0  0  0  0  0
    2.9635    0.8546   -1.5540 O   0  0  0  0  0  0  0  0  0  0  0  0
    2.6154   -0.5479    0.3047 N   0  0  0  0  0  0  0  0  0  0  0  0
    1.5108   -0.6395    1.1920 C   0  0  0  0  0  0  0  0  0  0  0  0
    1.4779   -1.4355    2.1670 O   0  0  0  0  0  0  0  0  0  0  0  0
   -4.1527    0.0717   -0.1440 H   0  0  0  0  0  0  0  0  0  0  0  0
   -3.1908   -1.4469   -0.2326 H   0  0  0  0  0  0  0  0  0  0  0  0
   -0.7802   -1.4042    0.2558 H   0  0  0  0  0  0  0  0  0  0  0  0
    0.2443    1.0369    1.6760 H   0  0  0  0  0  0  0  0  0  0  0  0
    0.4852    1.7779   -0.8613 H   0  0  0  0  0  0  0  0  0  0  0  0
    3.5060   -1.0923    0.3265 H   0  0  0  0  0  0  0  0  0  0  0  0
  1  2  1  0
  2  3  2  0
  2  4  1  0
  4  5  1  0
  5  6  1  0
  6  7  1  0
  7  8  2  0
  7  9  1  0
  9 10  1  0
 10 11  2  0
 10  5  1  0
  1 12  1  0
  1 13  1  0
  4 14  1  0
  5 15  1  1
  6 16  1  0
  9 17  1  0
M  END

     RDKit          3D

 33 36  0  0  0  0  0  0  0  0999 V2000
   -1.9663    2.5815   -0.6172 C   0  0  0  0  0  0  0  0  0  0  0  0
   -1.3977    1.2159   -0.3022 C   0  0  0  0  0  0  0  0  0  0  0  0
   -2.2459    0.1102   -0.0056 C   0  0  0  0  0  0  0  0  0  0  0  0
   -3.6446    0.2707    0.0883 C   0  0  0  0  0  0  0  0  0  0  0  0
   -4.4535   -0.8146    0.4079 C   0  0  0  0  0  0  0  0  0  0  0  0
   -3.9040   -2.0291    0.6446 N   0  0  0  0  0  0  0  0  0  0  0  0
   -2.5671   -2.2427    0.5608 C   0  0  0  0  0  0  0  0  0  0  0  0
   -1.6876   -1.1920    0.2153 C   0  0  0  0  0  0  0  0  0  0  0  0
   -0.2801   -1.3983    0.1083 C   0  0  0  0  0  0  0  0  0  0  0  0
    0.3301   -2.7794    0.0967 C   0  0  0  0  0  0  0  0  0  0  0  0
    0.5301   -0.2569   -0.0327 C   0  0  0  0  0  0  0  0  0  0  0  0
   -0.0103    1.0017   -0.2538 C   0  0  0  0  0  0  0  0  0  0  0  0
    0.9630    1.9362   -0.3824 N   0  0  0  0  0  0  0  0  0  0  0  0
    2.1220    1.2722   -0.2259 C   0  0  0  0  0  0  0  0  0  0  0  0
    3.4013    1.8274   -0.2357 C   0  0  0  0  0  0  0  0  0  0  0  0
    4.4924    0.9769    0.0038 C   0  0  0  0  0  0  0  0  0  0  0  0
    4.2852   -0.3924    0.2673 C   0  0  0  0  0  0  0  0  0  0  0  0
    2.9854   -0.9294    0.2816 C   0  0  0  0  0  0  0  0  0  0  0  0
    1.9115   -0.0725    0.0007 C   0  0  0  0  0  0  0  0  0  0  0  0
   -1.2104    3.2855   -1.0142 H   0  0  0  0  0  0  0  0  0  0  0  0
   -2.4202    3.0203    0.2984 H   0  0  0  0  0  0  0  0  0  0  0  0
   -2.7440    2.4923   -1.4056 H   0  0  0  0  0  0  0  0  0  0  0  0
   -4.1255    1.2268   -0.0661 H   0  0  0  0  0  0  0  0  0  0  0  0
   -5.5250   -0.6875    0.4818 H   0  0  0  0  0  0  0  0  0  0  0  0
   -2.2078   -3.2305    0.8063 H   0  0  0  0  0  0  0  0  0  0  0  0
    1.1786   -2.8183   -0.6151 H   0  0  0  0  0  0  0  0  0  0  0  0
    0.6607   -3.0621    1.1163 H   0  0  0  0  0  0  0  0  0  0  0  0
   -0.3723   -3.5401   -0.2920 H   0  0  0  0  0  0  0  0  0  0  0  0
    0.8684    2.9651   -0.5242 H   0  0  0  0  0  0  0  0  0  0  0  0
    3.5517    2.8843   -0.4183 H   0  0  0  0  0  0  0  0  0  0  0  0
    5.4972    1.3781    0.0010 H   0  0  0  0  0  0  0  0  0  0  0  0
    5.1336   -1.0317    0.4745 H   0  0  0  0  0  0  0  0  0  0  0  0
    2.8509   -1.9677    0.5376 H   0  0  0  0  0  0  0  0  0  0  0  0
  1  2  1  0
  2  3  2  0
  3  4  1  0
  4  5  2  0
  5  6  1  0
  6  7  2  0
  7  8  1  0
  8  9  2  0
  9 10  1  0
  9 11  1  0
 11 12  2  0
 12 13  1  0
 13 14  1  0
 14 15  2  0
 15 16  1  0
 16 17  2  0
 17 18  1  0
 18 19  2  0
 12  2  1  0
 19 14  1  0
  8  3  1  0
 19 11  1  0
  1 20  1  0
  1 21  1  0
  1 22  1  0
  4 23  1  0
  5 24  1  0
  7 25  1  0
 10 26  1  0
 10 27  1  0
 10 28  1  0
 13 29  1  0
 15 30  1  0
 16 31  1  0
 17 32  1  0
 18 33  1  0
M  END

     RDKit          3D

 24 26  0  0  0  0  0  0  0  0999 V2000
    3.6288   -0.6742   -0.3815 C   0  0  0  0  0  0  0  0  0  0  0  0
    2.5428    0.2418   -0.2890 O   0  0  0  0  0  0  0  0  0  0  0  0
    1.1938   -0.1330   -0.1729 C   0  0  0  0  0  0  0  0  0  0  0  0
    0.8026   -1.4960   -0.1383 C   0  0  0  0  0  0  0  0  0  0  0  0
   -0.5525   -1.7941   -0.0218 C   0  0  0  0  0  0  0  0  0  0  0  0
   -1.1083   -2.9799    0.0268 O   0  0  0  0  0  0  0  0  0  0  0  0
   -2.4131   -2.8066    0.1387 C   0  0  0  0  0  0  0  0  0  0  0  0
   -2.7216   -1.4510    0.1641 C   0  0  0  0  0  0  0  0  0  0  0  0
   -1.5044   -0.8174    0.0592 C   0  0  0  0  0  0  0  0  0  0  0  0
   -1.1735    0.5334    0.0298 C   0  0  0  0  0  0  0  0  0  0  0  0
   -2.1111    1.4732    0.1096 O   0  0  0  0  0  0  0  0  0  0  0  0
   -1.8204    2.7706    0.0836 C   0  0  0  0  0  0  0  0  0  0  0  0
   -2.7479    3.6179    0.1626 O   0  0  0  0  0  0  0  0  0  0  0  0
   -0.4929    3.1974   -0.0306 C   0  0  0  0  0  0  0  0  0  0  0  0
    0.5227    2.2446   -0.1171 C   0  0  0  0  0  0  0  0  0  0  0  0
    0.1984    0.8814   -0.0882 C   0  0  0  0  0  0  0  0  0  0  0  0
    4.5771   -0.1047   -0.4633 H   0  0  0  0  0  0  0  0  0  0  0  0
    3.6723   -1.3081    0.5292 H   0  0  0  0  0  0  0  0  0  0  0  0
    3.5166   -1.3095   -1.2854 H   0  0  0  0  0  0  0  0  0  0  0  0
    1.5219   -2.3009   -0.1995 H   0  0  0  0  0  0  0  0  0  0  0  0
   -3.1291   -3.6150    0.2007 H   0  0  0  0  0  0  0  0  0  0  0  0
   -3.7007   -0.9983    0.2478 H   0  0  0  0  0  0  0  0  0  0  0  0
   -0.2513    4.2530   -0.0522 H   0  0  0  0  0  0  0  0  0  0  0  0
    1.5500    2.5755   -0.2055 H   0  0  0  0  0  0  0  0  0  0  0  0
  1  2  1  0
  2  3  1  0
  3  4  2  0
  4  5  1  0
  5  6  1  0
  6  7  1  0
  7  8  2  0
  8  9  1  0
  9 10  1  0
 10 11  1  0
 11 12  1  0
 12 13  2  0
 12 14  1  0
 14 15  2  0
 15 16  1  0
 16  3  1  0
  9  5  2  0
 16 10  2  0
  1 17  1  0
  1 18  1  0
  1 19  1  0
  4 20  1  0
  7 21  1  0
  8 22  1  0
 14 23  1  0
 15 24  1  0
M  END

     RDKit          3D

 27 29  0  0  0  0  0  0  0  0999 V2000
    3.8891    1.1965   -0.4251 C   0  0  0  0  0  0  0  0  0  0  0  0
    3.3269   -0.0178   -0.3985 C   0  0  0  0  0  0  0  0  0  0  0  0
    4.2020   -1.2382   -0.4702 C   0  0  0  0  0  0  0  0  0  0  0  0
    1.8673   -0.1955   -0.2106 C   0  0  0  0  0  0  0  0  0  0  0  0
    0.8959    0.8098   -0.1749 C   0  0  0  0  0  0  0  0  0  0  0  0
   -0.2888    0.1366    0.0175 C   0  0  0  0  0  0  0  0  0  0  0  0
    0.0134   -1.1964    0.0858 C   0  0  0  0  0  0  0  0  0  0  0  0
   -0.9694   -2.1664    0.2767 C   0  0  0  0  0  0  0  0  0  0  0  0
   -2.3055   -1.7403    0.4000 C   0  0  0  0  0  0  0  0  0  0  0  0
   -2.6242   -0.3621    0.3294 C   0  0  0  0  0  0  0  0  0  0  0  0
   -3.9397    0.0949    0.4474 C   0  0  0  0  0  0  0  0  0  0  0  0
   -4.1985    1.4643    0.3704 C   0  0  0  0  0  0  0  0  0  0  0  0
   -3.1316    2.3509    0.1761 C   0  0  0  0  0  0  0  0  0  0  0  0
   -3.3493    3.5886    0.1045 O   0  0  0  0  0  0  0  0  0  0  0  0
   -1.8863    1.8947    0.0663 O   0  0  0  0  0  0  0  0  0  0  0  0
   -1.5983    0.5981    0.1342 C   0  0  0  0  0  0  0  0  0  0  0  0
    1.3027   -1.3812   -0.0520 O   0  0  0  0  0  0  0  0  0  0  0  0
    4.9615    1.3089   -0.5273 H   0  0  0  0  0  0  0  0  0  0  0  0
    3.3033    2.1007   -0.3402 H   0  0  0  0  0  0  0  0  0  0  0  0
    3.6763   -2.0614   -0.9985 H   0  0  0  0  0  0  0  0  0  0  0  0
    5.1425   -1.0299   -1.0246 H   0  0  0  0  0  0  0  0  0  0  0  0
    4.4546   -1.5722    0.5579 H   0  0  0  0  0  0  0  0  0  0  0  0
    1.0253    1.8784   -0.2794 H   0  0  0  0  0  0  0  0  0  0  0  0
   -0.7126   -3.2163    0.3284 H   0  0  0  0  0  0  0  0  0  0  0  0
   -3.0850   -2.4775    0.5488 H   0  0  0  0  0  0  0  0  0  0  0  0
   -4.7581   -0.5988    0.5975 H   0  0  0  0  0  0  0  0  0  0  0  0
   -5.2135    1.8315    0.4602 H   0  0  0  0  0  0  0  0  0  0  0  0
  1  2  2  3
  2  3  1  0
  2  4  1  0
  4  5  2  0
  5  6  1  0
  6  7  2  0
  7  8  1  0
  8  9  2  0
  9 10  1  0
 10 11  1  0
 11 12  2  0
 12 13  1  0
 13 14  2  0
 13 15  1  0
 15 16  1  0
  7 17  1  0
 17  4  1  0
 16  6  1  0
 16 10  2  0
  1 18  1  0
  1 19  1  0
  3 20  1  0
  3 21  1  0
  3 22  1  0
  5 23  1  0
  8 24  1  0
  9 25  1  0
 11 26  1  0
 12 27  1  0
M  END

     RDKit          3D

 31 32  0  0  0  0  0  0  0  0999 V2000
   -2.7223    1.3582   -0.3176 C   0  0  0  0  0  0  0  0  0  0  0  0
   -1.9516    0.3846    0.4715 N   0  0  0  0  0  0  0  0  0  0  0  0
   -2.2855    0.5322    1.8988 C   0  0  0  0  0  0  0  0  0  0  0  0
   -2.2188   -0.9938    0.0027 C   0  0  0  0  0  0  0  0  0  0  0  0
   -0.9978   -1.8940    0.2276 C   0  0  0  0  0  0  0  0  0  0  0  0
    0.1823   -1.4147   -0.5674 C   0  0  0  0  0  0  0  0  0  0  0  0
    0.4386   -1.6874   -1.9078 C   0  0  0  0  0  0  0  0  0  0  0  0
    1.5375   -1.0181   -2.3241 N   0  0  0  0  0  0  0  0  0  0  0  0
    1.9694   -0.3155   -1.2625 C   0  0  0  0  0  0  0  0  0  0  0  0
    3.0618    0.5488   -1.2106 C   0  0  0  0  0  0  0  0  0  0  0  0
    3.3263    1.2086    0.0046 C   0  0  0  0  0  0  0  0  0  0  0  0
    4.4105    2.0787    0.0882 O   0  0  0  0  0  0  0  0  0  0  0  0
    2.4939    0.9884    1.1292 C   0  0  0  0  0  0  0  0  0  0  0  0
    1.3975    0.1116    1.0458 C   0  0  0  0  0  0  0  0  0  0  0  0
    1.1654   -0.5275   -0.1721 C   0  0  0  0  0  0  0  0  0  0  0  0
   -2.5319    2.3902    0.0488 H   0  0  0  0  0  0  0  0  0  0  0  0
   -2.3982    1.3267   -1.3801 H   0  0  0  0  0  0  0  0  0  0  0  0
   -3.8137    1.1466   -0.2622 H   0  0  0  0  0  0  0  0  0  0  0  0
   -3.3751    0.3915    2.0764 H   0  0  0  0  0  0  0  0  0  0  0  0
   -1.7255   -0.2051    2.5104 H   0  0  0  0  0  0  0  0  0  0  0  0
   -1.9890    1.5419    2.2551 H   0  0  0  0  0  0  0  0  0  0  0  0
   -2.4488   -1.0112   -1.0878 H   0  0  0  0  0  0  0  0  0  0  0  0
   -3.1032   -1.4333    0.5177 H   0  0  0  0  0  0  0  0  0  0  0  0
   -0.7380   -1.9417    1.3053 H   0  0  0  0  0  0  0  0  0  0  0  0
   -1.2503   -2.9277   -0.0931 H   0  0  0  0  0  0  0  0  0  0  0  0
   -0.1569   -2.3269   -2.5462 H   0  0  0  0  0  0  0  0  0  0  0  0
    1.9520   -1.0323   -3.2823 H   0  0  0  0  0  0  0  0  0  0  0  0
    3.6852    0.7106   -2.0807 H   0  0  0  0  0  0  0  0  0  0  0  0
    4.6287    2.5709    0.9467 H   0  0  0  0  0  0  0  0  0  0  0  0
    2.6974    1.4972    2.0627 H   0  0  0  0  0  0  0  0  0  0  0  0
    0.7601   -0.0575    1.9030 H   0  0  0  0  0  0  0  0  0  0  0  0
  1  2  1  0
  2  3  1  0
  2  4  1  0
  4  5  1  0
  5  6  1  0
  6  7  2  0
  7  8  1  0
  8  9  1  0
  9 10  2  0
 10 11  1  0
 11 12  1  0
 11 13  2  0
 13 14  1  0
 14 15  2  0
 15  6  1  0
 15  9  1  0
  1 16  1  0
  1 17  1  0
  1 18  1  0
  3 19  1  0
  3 20  1  0
  3 21  1  0
  4 22  1  0
  4 23  1  0
  5 24  1  0
  5 25  1  0
  7 26  1  0
  8 27  1  0
 10 28  1  0
 12 29  1  0
 13 30  1  0
 14 31  1  0
M  END

     RDKit          3D

 39 41  0  0  0  0  0  0  0  0999 V2000
   -3.0684    1.9878    1.1849 C   0  0  0  0  0  0  0  0  0  0  0  0
   -2.2318    1.1802    0.2389 C   0  0  0  0  0  0  0  0  0  0  0  0
   -2.4133    1.2583   -1.1057 C   0  0  0  0  0  0  0  0  0  0  0  0
   -1.5407    0.3931   -2.0222 C   0  0  0  0  0  0  0  0  0  0  0  0
   -0.5233   -0.4414   -1.1780 C   0  0  1  0  0  0  0  0  0  0  0  0
    0.1167    0.5175   -0.1436 C   0  0  2  0  0  0  0  0  0  0  0  0
    1.3908   -0.0981    0.5194 C   0  0  2  0  0  0  0  0  0  0  0  0
    2.7032    0.2576   -0.2516 C   0  0  0  0  0  0  0  0  0  0  0  0
    3.9401   -0.3350    0.4504 C   0  0  0  0  0  0  0  0  0  0  0  0
    2.9032    1.7773   -0.4011 C   0  0  0  0  0  0  0  0  0  0  0  0
    1.2258   -1.6461    0.6796 C   0  0  0  0  0  0  0  0  0  0  0  0
   -0.2507   -2.1129    0.7424 C   0  0  0  0  0  0  0  0  0  0  0  0
   -1.2170   -1.1218    0.0328 C   0  0  2  0  0  0  0  0  0  0  0  0
   -2.6142   -1.7580   -0.1590 C   0  0  0  0  0  0  0  0  0  0  0  0
   -1.1230    0.2480    0.7386 C   0  0  2  0  0  0  0  0  0  0  0  0
   -2.7718    1.7932    2.2365 H   0  0  0  0  0  0  0  0  0  0  0  0
   -4.1381    1.7183    1.0614 H   0  0  0  0  0  0  0  0  0  0  0  0
   -2.9357    3.0691    0.9722 H   0  0  0  0  0  0  0  0  0  0  0  0
   -3.1745    1.9046   -1.5315 H   0  0  0  0  0  0  0  0  0  0  0  0
   -2.1833   -0.2866   -2.6199 H   0  0  0  0  0  0  0  0  0  0  0  0
   -0.9853    1.0514   -2.7229 H   0  0  0  0  0  0  0  0  0  0  0  0
    0.1722   -1.0680   -1.7778 H   0  0  0  0  0  0  0  0  0  0  0  0
    0.2196    1.5815   -0.4469 H   0  0  0  0  0  0  0  0  0  0  0  0
    1.4728    0.3407    1.5397 H   0  0  0  0  0  0  0  0  0  0  0  0
    2.6499   -0.1782   -1.2738 H   0  0  0  0  0  0  0  0  0  0  0  0
    4.8687   -0.0474   -0.0882 H   0  0  0  0  0  0  0  0  0  0  0  0
    4.0071    0.0318    1.4972 H   0  0  0  0  0  0  0  0  0  0  0  0
    3.9044   -1.4437    0.4578 H   0  0  0  0  0  0  0  0  0  0  0  0
    3.9259    2.0057   -0.7707 H   0  0  0  0  0  0  0  0  0  0  0  0
    2.2056    2.1968   -1.1531 H   0  0  0  0  0  0  0  0  0  0  0  0
    2.7557    2.2921    0.5716 H   0  0  0  0  0  0  0  0  0  0  0  0
    1.6952   -2.1595   -0.1887 H   0  0  0  0  0  0  0  0  0  0  0  0
    1.7613   -1.9922    1.5904 H   0  0  0  0  0  0  0  0  0  0  0  0
   -0.5572   -2.2202    1.8062 H   0  0  0  0  0  0  0  0  0  0  0  0
   -0.3277   -3.1191    0.2748 H   0  0  0  0  0  0  0  0  0  0  0  0
   -2.5257   -2.6561   -0.8055 H   0  0  0  0  0  0  0  0  0  0  0  0
   -3.0152   -2.0721    0.8274 H   0  0  0  0  0  0  0  0  0  0  0  0
   -3.3613   -1.0871   -0.6215 H   0  0  0  0  0  0  0  0  0  0  0  0
   -0.9600    0.2384    1.8394 H   0  0  0  0  0  0  0  0  0  0  0  0
  1  2  1  0
  2  3  2  0
  3  4  1  0
  4  5  1  0
  5  6  1  0
  6  7  1  0
  7  8  1  0
  8  9  1  0
  8 10  1  0
  7 11  1  0
 11 12  1  0
 12 13  1  0
 13 14  1  6
 13 15  1  0
 15  2  1  0
 13  5  1  0
 15  6  1  0
  1 16  1  0
  1 17  1  0
  1 18  1  0
  3 19  1  0
  4 20  1  0
  4 21  1  0
  5 22  1  6
  6 23  1  6
  7 24  1  1
  8 25  1  0
  9 26  1  0
  9 27  1  0
  9 28  1  0
 10 29  1  0
 10 30  1  0
 10 31  1  0
 11 32  1  0
 11 33  1  0
 12 34  1  0
 12 35  1  0
 14 36  1  0
 14 37  1  0
 14 38  1  0
 15 39  1  1
M  END

     RDKit          3D

 34 36  0  0  0  0  0  0  0  0999 V2000
    3.2327   -1.6673    0.4939 C   0  0  0  0  0  0  0  0  0  0  0  0
    3.0918   -0.2308    0.0548 C   0  0  0  0  0  0  0  0  0  0  0  0
    4.0833    0.3024   -0.9474 C   0  0  0  0  0  0  0  0  0  0  0  0
    2.0906    0.5657    0.4948 C   0  0  0  0  0  0  0  0  0  0  0  0
    1.0234    0.1489    1.4781 C   0  0  0  0  0  0  0  0  0  0  0  0
   -0.3378    0.3320    0.8581 C   0  0  0  0  0  0  0  0  0  0  0  0
   -1.0134    1.5489    0.9684 C   0  0  0  0  0  0  0  0  0  0  0  0
   -0.6215    2.6272    1.6046 O   0  0  0  0  0  0  0  0  0  0  0  0
   -1.5558    3.5471    1.4548 C   0  0  0  0  0  0  0  0  0  0  0  0
   -2.6022    3.0503    0.6884 C   0  0  0  0  0  0  0  0  0  0  0  0
   -2.2315    1.7594    0.3842 C   0  0  0  0  0  0  0  0  0  0  0  0
   -2.8822    0.7838   -0.3681 C   0  0  0  0  0  0  0  0  0  0  0  0
   -4.1270    1.0851   -0.9280 O   0  0  0  0  0  0  0  0  0  0  0  0
   -2.2269   -0.4714   -0.5227 C   0  0  0  0  0  0  0  0  0  0  0  0
   -2.7749   -1.5298   -1.2673 C   0  0  0  0  0  0  0  0  0  0  0  0
   -2.0765   -2.7289   -1.3884 C   0  0  0  0  0  0  0  0  0  0  0  0
   -0.8361   -2.8600   -0.7645 C   0  0  0  0  0  0  0  0  0  0  0  0
   -0.1922   -3.9369   -0.8654 O   0  0  0  0  0  0  0  0  0  0  0  0
   -0.3279   -1.8550   -0.0616 O   0  0  0  0  0  0  0  0  0  0  0  0
   -0.9497   -0.6876    0.0901 C   0  0  0  0  0  0  0  0  0  0  0  0
    4.1069   -2.1473    0.0047 H   0  0  0  0  0  0  0  0  0  0  0  0
    3.3849   -1.7151    1.5931 H   0  0  0  0  0  0  0  0  0  0  0  0
    2.3276   -2.2443    0.2132 H   0  0  0  0  0  0  0  0  0  0  0  0
    5.1169    0.0839   -0.6055 H   0  0  0  0  0  0  0  0  0  0  0  0
    3.9165   -0.1919   -1.9272 H   0  0  0  0  0  0  0  0  0  0  0  0
    3.9926    1.4017   -1.0833 H   0  0  0  0  0  0  0  0  0  0  0  0
    2.0358    1.5908    0.1349 H   0  0  0  0  0  0  0  0  0  0  0  0
    1.1163    0.7866    2.3834 H   0  0  0  0  0  0  0  0  0  0  0  0
    1.1374   -0.8972    1.8280 H   0  0  0  0  0  0  0  0  0  0  0  0
   -1.5007    4.5426    1.8748 H   0  0  0  0  0  0  0  0  0  0  0  0
   -3.5050    3.5684    0.3930 H   0  0  0  0  0  0  0  0  0  0  0  0
   -4.6708    0.4392   -1.4816 H   0  0  0  0  0  0  0  0  0  0  0  0
   -3.7296   -1.4542   -1.7637 H   0  0  0  0  0  0  0  0  0  0  0  0
   -2.4951   -3.5465   -1.9630 H   0  0  0  0  0  0  0  0  0  0  0  0
  1  2  1  0
  2  3  1  0
  2  4  2  3
  4  5  1  0
  5  6  1  0
  6  7  2  0
  7  8  1  0
  8  9  1  0
  9 10  2  0
 10 11  1  0
 11 12  2  0
 12 13  1  0
 12 14  1  0
 14 15  1  0
 15 16  2  0
 16 17  1  0
 17 18  2  0
 17 19  1  0
 19 20  1  0
 20  6  1  0
 11  7  1  0
 20 14  2  0
  1 21  1  0
  1 22  1  0
  1 23  1  0
  3 24  1  0
  3 25  1  0
  3 26  1  0
  4 27  1  0
  5 28  1  0
  5 29  1  0
  9 30  1  0
 10 31  1  0
 13 32  1  0
 15 33  1  0
 16 34  1  0
M  END

     RDKit          3D

 24 26  0  0  0  0  0  0  0  0999 V2000
    3.6999   -0.7637    0.3159 C   0  0  0  0  0  0  0  0  0  0  0  0
    2.8174    0.3381    0.1328 O   0  0  0  0  0  0  0  0  0  0  0  0
    1.4210    0.2269    0.0840 C   0  0  0  0  0  0  0  0  0  0  0  0
    0.7361   -1.0073    0.2135 C   0  0  0  0  0  0  0  0  0  0  0  0
   -0.6781   -1.0456    0.1544 C   0  0  0  0  0  0  0  0  0  0  0  0
   -1.3880   -2.2435    0.2780 C   0  0  0  0  0  0  0  0  0  0  0  0
   -2.7822   -2.2234    0.2123 C   0  0  0  0  0  0  0  0  0  0  0  0
   -3.4389   -1.0005    0.0236 C   0  0  0  0  0  0  0  0  0  0  0  0
   -4.6957   -0.9659   -0.0378 O   0  0  0  0  0  0  0  0  0  0  0  0
   -2.7433    0.1283   -0.0917 O   0  0  0  0  0  0  0  0  0  0  0  0
   -1.4154    0.1501   -0.0344 C   0  0  0  0  0  0  0  0  0  0  0  0
   -0.7064    1.3400   -0.1570 C   0  0  0  0  0  0  0  0  0  0  0  0
    0.6503    1.3752   -0.1002 C   0  0  0  0  0  0  0  0  0  0  0  0
    1.0796    2.6804   -0.2504 O   0  0  0  0  0  0  0  0  0  0  0  0
   -0.0762    3.5144   -0.4112 C   0  0  0  0  0  0  0  0  0  0  0  0
   -1.1944    2.6189   -0.3454 O   0  0  0  0  0  0  0  0  0  0  0  0
    4.7459   -0.3946    0.3153 H   0  0  0  0  0  0  0  0  0  0  0  0
    3.4970   -1.2573    1.2898 H   0  0  0  0  0  0  0  0  0  0  0  0
    3.5786   -1.4918   -0.5138 H   0  0  0  0  0  0  0  0  0  0  0  0
    1.2873   -1.9275    0.3581 H   0  0  0  0  0  0  0  0  0  0  0  0
   -0.8708   -3.1842    0.4237 H   0  0  0  0  0  0  0  0  0  0  0  0
   -3.3442   -3.1444    0.3066 H   0  0  0  0  0  0  0  0  0  0  0  0
   -0.1307    4.2564    0.4128 H   0  0  0  0  0  0  0  0  0  0  0  0
   -0.0487    4.0209   -1.3987 H   0  0  0  0  0  0  0  0  0  0  0  0
  1  2  1  0
  2  3  1  0
  3  4  2  0
  4  5  1  0
  5  6  1  0
  6  7  2  0
  7  8  1  0
  8  9  2  0
  8 10  1  0
 10 11  1  0
 11 12  1  0
 12 13  2  0
 13 14  1  0
 14 15  1  0
 15 16  1  0
 13  3  1  0
 11  5  2  0
 16 12  1  0
  1 17  1  0
  1 18  1  0
  1 19  1  0
  4 20  1  0
  6 21  1  0
  7 22  1  0
 15 23  1  0
 15 24  1  0
M  END

     RDKit          3D

 55 56  0  0  0  0  0  0  0  0999 V2000
   -3.9127    1.1510    2.4143 C   0  0  0  0  0  0  0  0  0  0  0  0
   -2.9284    1.3097    1.2743 C   0  0  0  0  0  0  0  0  0  0  0  0
   -2.5265    2.5592    0.9328 C   0  0  0  0  0  0  0  0  0  0  0  0
   -1.4892    2.8562   -0.1355 C   0  0  0  0  0  0  0  0  0  0  0  0
   -1.0758    1.6360   -0.9753 C   0  0  0  0  0  0  0  0  0  0  0  0
   -1.0192    0.3631   -0.0776 C   0  0  2  0  0  0  0  0  0  0  0  0
   -0.1693   -0.8746   -0.6424 C   0  0  1  0  0  0  0  0  0  0  0  0
   -0.3794   -1.0624   -2.1714 C   0  0  0  0  0  0  0  0  0  0  0  0
    1.3709   -0.6483   -0.3629 C   0  0  0  0  0  0  0  0  0  0  0  0
    2.0333    0.6401   -0.8716 C   0  0  0  0  0  0  0  0  0  0  0  0
    3.5113    0.6151   -0.5390 C   0  0  0  0  0  0  0  0  0  0  0  0
    4.4655   -0.0573   -1.4933 C   0  0  0  0  0  0  0  0  0  0  0  0
    3.9342    1.1436    0.6350 C   0  0  0  0  0  0  0  0  0  0  0  0
    5.3770    1.2092    1.0809 C   0  0  0  0  0  0  0  0  0  0  0  0
    5.4601    0.9417    2.4550 O   0  0  0  0  0  0  0  0  0  0  0  0
   -0.5186   -2.2209    0.1345 C   0  0  2  0  0  0  0  0  0  0  0  0
   -0.0058   -3.5185   -0.5399 C   0  0  0  0  0  0  0  0  0  0  0  0
   -2.0025   -2.3921    0.4562 C   0  0  0  0  0  0  0  0  0  0  0  0
   -2.5121   -1.2009    1.2629 C   0  0  0  0  0  0  0  0  0  0  0  0
   -2.4936    0.0958    0.4266 C   0  0  1  0  0  0  0  0  0  0  0  0
   -3.5517   -0.0296   -0.7108 C   0  0  0  0  0  0  0  0  0  0  0  0
   -3.4582    0.5335    3.2155 H   0  0  0  0  0  0  0  0  0  0  0  0
   -4.2018    2.1283    2.8563 H   0  0  0  0  0  0  0  0  0  0  0  0
   -4.8357    0.6592    2.0459 H   0  0  0  0  0  0  0  0  0  0  0  0
   -2.8843    3.4163    1.4992 H   0  0  0  0  0  0  0  0  0  0  0  0
   -0.5848    3.2658    0.3728 H   0  0  0  0  0  0  0  0  0  0  0  0
   -1.8763    3.6466   -0.8133 H   0  0  0  0  0  0  0  0  0  0  0  0
   -0.1316    1.8783   -1.4922 H   0  0  0  0  0  0  0  0  0  0  0  0
   -1.8007    1.5036   -1.8067 H   0  0  0  0  0  0  0  0  0  0  0  0
   -0.4600    0.6577    0.8430 H   0  0  0  0  0  0  0  0  0  0  0  0
    0.3867   -1.7496   -2.5922 H   0  0  0  0  0  0  0  0  0  0  0  0
   -1.3733   -1.5021   -2.3982 H   0  0  0  0  0  0  0  0  0  0  0  0
   -0.2720   -0.1143   -2.7371 H   0  0  0  0  0  0  0  0  0  0  0  0
    1.9575   -1.4904   -0.7905 H   0  0  0  0  0  0  0  0  0  0  0  0
    1.5424   -0.6736    0.7373 H   0  0  0  0  0  0  0  0  0  0  0  0
    1.5901    1.5222   -0.3650 H   0  0  0  0  0  0  0  0  0  0  0  0
    1.9047    0.7414   -1.9694 H   0  0  0  0  0  0  0  0  0  0  0  0
    5.2339    0.6656   -1.8363 H   0  0  0  0  0  0  0  0  0  0  0  0
    3.9325   -0.4383   -2.3855 H   0  0  0  0  0  0  0  0  0  0  0  0
    4.9537   -0.9238   -0.9902 H   0  0  0  0  0  0  0  0  0  0  0  0
    3.2074    1.6243    1.2835 H   0  0  0  0  0  0  0  0  0  0  0  0
    5.7796    2.2240    0.8624 H   0  0  0  0  0  0  0  0  0  0  0  0
    6.0108    0.4736    0.5521 H   0  0  0  0  0  0  0  0  0  0  0  0
    5.1478    1.7541    2.9299 H   0  0  0  0  0  0  0  0  0  0  0  0
   -0.0153   -2.1941    1.1236 H   0  0  0  0  0  0  0  0  0  0  0  0
   -0.1594   -4.3830    0.1344 H   0  0  0  0  0  0  0  0  0  0  0  0
    1.0824   -3.4827   -0.7633 H   0  0  0  0  0  0  0  0  0  0  0  0
   -0.5588   -3.7210   -1.4837 H   0  0  0  0  0  0  0  0  0  0  0  0
   -2.5930   -2.5524   -0.4676 H   0  0  0  0  0  0  0  0  0  0  0  0
   -2.1389   -3.3025    1.0782 H   0  0  0  0  0  0  0  0  0  0  0  0
   -3.5490   -1.4344    1.6005 H   0  0  0  0  0  0  0  0  0  0  0  0
   -1.8844   -1.0733    2.1786 H   0  0  0  0  0  0  0  0  0  0  0  0
   -4.4823   -0.4923   -0.3179 H   0  0  0  0  0  0  0  0  0  0  0  0
   -3.1897   -0.6501   -1.5483 H   0  0  0  0  0  0  0  0  0  0  0  0
   -3.8477    0.9672   -1.1089 H   0  0  0  0  0  0  0  0  0  0  0  0
  1  2  1  0
  2  3  2  0
  3  4  1  0
  4  5  1  0
  5  6  1  0
  6  7  1  0
  7  8  1  6
  7  9  1  0
  9 10  1  0
 10 11  1  0
 11 12  1  0
 11 13  2  0
 13 14  1  0
 14 15  1  0
  7 16  1  0
 16 17  1  0
 16 18  1  0
 18 19  1  0
 19 20  1  0
 20 21  1  6
 20  2  1  0
 20  6  1  0
  1 22  1  0
  1 23  1  0
  1 24  1  0
  3 25  1  0
  4 26  1  0
  4 27  1  0
  5 28  1  0
  5 29  1  0
  6 30  1  1
  8 31  1  0
  8 32  1  0
  8 33  1  0
  9 34  1  0
  9 35  1  0
 10 36  1  0
 10 37  1  0
 12 38  1  0
 12 39  1  0
 12 40  1  0
 13 41  1  0
 14 42  1  0
 14 43  1  0
 15 44  1  0
 16 45  1  1
 17 46  1  0
 17 47  1  0
 17 48  1  0
 18 49  1  0
 18 50  1  0
 19 51  1  0
 19 52  1  0
 21 53  1  0
 21 54  1  0
 21 55  1  0
M  END

     RDKit          3D

 29 31  0  0  0  0  0  0  0  0999 V2000
   -4.6824    0.1650    0.3696 C   0  0  0  0  0  0  0  0  0  0  0  0
   -3.2442    0.0543   -0.0434 C   0  0  0  0  0  0  0  0  0  0  0  0
   -2.9018   -0.6007   -1.2310 C   0  0  0  0  0  0  0  0  0  0  0  0
   -1.5634   -0.7548   -1.6054 C   0  0  0  0  0  0  0  0  0  0  0  0
   -1.2987   -1.4884   -2.7642 O   0  0  0  0  0  0  0  0  0  0  0  0
   -0.5370   -0.2056   -0.7945 C   0  0  0  0  0  0  0  0  0  0  0  0
   -0.8804    0.3992    0.4353 C   0  0  0  0  0  0  0  0  0  0  0  0
   -2.2316    0.5236    0.8003 C   0  0  0  0  0  0  0  0  0  0  0  0
    0.1864    0.8923    1.3386 C   0  0  0  0  0  0  0  0  0  0  0  0
   -0.1158    1.5419    2.3775 O   0  0  0  0  0  0  0  0  0  0  0  0
    1.6067    0.5972    1.0362 C   0  0  0  0  0  0  0  0  0  0  0  0
    2.6100    0.9092    1.9694 C   0  0  0  0  0  0  0  0  0  0  0  0
    3.9443    0.6165    1.6950 C   0  0  0  0  0  0  0  0  0  0  0  0
    4.2903   -0.0163    0.5031 C   0  0  0  0  0  0  0  0  0  0  0  0
    3.3098   -0.3563   -0.4346 C   0  0  0  0  0  0  0  0  0  0  0  0
    3.7176   -1.0680   -1.5651 O   0  0  0  0  0  0  0  0  0  0  0  0
    1.9547   -0.0055   -0.1945 C   0  0  0  0  0  0  0  0  0  0  0  0
    0.8885   -0.1861   -1.2135 C   0  0  0  0  0  0  0  0  0  0  0  0
    1.1813   -0.1620   -2.4386 O   0  0  0  0  0  0  0  0  0  0  0  0
   -4.8459    1.0807    0.9770 H   0  0  0  0  0  0  0  0  0  0  0  0
   -4.9632   -0.7243    0.9718 H   0  0  0  0  0  0  0  0  0  0  0  0
   -5.3435    0.2228   -0.5216 H   0  0  0  0  0  0  0  0  0  0  0  0
   -3.6786   -1.0163   -1.8618 H   0  0  0  0  0  0  0  0  0  0  0  0
   -0.3819   -1.8377   -3.0070 H   0  0  0  0  0  0  0  0  0  0  0  0
   -2.5006    0.9870    1.7421 H   0  0  0  0  0  0  0  0  0  0  0  0
    2.3633    1.3794    2.9131 H   0  0  0  0  0  0  0  0  0  0  0  0
    4.7113    0.8632    2.4178 H   0  0  0  0  0  0  0  0  0  0  0  0
    5.3267   -0.2679    0.3159 H   0  0  0  0  0  0  0  0  0  0  0  0
    3.0781   -1.5421   -2.1875 H   0  0  0  0  0  0  0  0  0  0  0  0
  1  2  1  0
  2  3  2  0
  3  4  1  0
  4  5  1  0
  4  6  2  0
  6  7  1  0
  7  8  2  0
  7  9  1  0
  9 10  2  0
  9 11  1  0
 11 12  2  0
 12 13  1  0
 13 14  2  0
 14 15  1  0
 15 16  1  0
 15 17  2  0
 17 18  1  0
 18 19  2  0
  8  2  1  0
 17 11  1  0
 18  6  1  0
  1 20  1  0
  1 21  1  0
  1 22  1  0
  3 23  1  0
  5 24  1  0
  8 25  1  0
 12 26  1  0
 13 27  1  0
 14 28  1  0
 16 29  1  0
M  END

     RDKit          3D

 32 34  0  0  0  0  0  0  0  0999 V2000
    1.8669   -3.0160   -0.5094 O   0  0  0  0  0  0  0  0  0  0  0  0
    1.4858   -1.8282   -0.3343 C   0  0  0  0  0  0  0  0  0  0  0  0
    0.1105   -1.5696   -0.2212 C   0  0  0  0  0  0  0  0  0  0  0  0
   -0.8195   -2.6088   -0.3066 O   0  0  0  0  0  0  0  0  0  0  0  0
   -0.3185   -0.2510    0.0189 C   0  0  0  0  0  0  0  0  0  0  0  0
   -1.7530    0.1171    0.0833 C   0  0  0  0  0  0  0  0  0  0  0  0
   -2.1783    1.0826    1.0111 C   0  0  0  0  0  0  0  0  0  0  0  0
   -3.5150    1.4853    1.0542 C   0  0  0  0  0  0  0  0  0  0  0  0
   -4.4433    0.9463    0.1593 C   0  0  0  0  0  0  0  0  0  0  0  0
   -5.7671    1.3779    0.2161 O   0  0  0  0  0  0  0  0  0  0  0  0
   -4.0288   -0.0073   -0.7859 C   0  0  0  0  0  0  0  0  0  0  0  0
   -4.9467   -0.5372   -1.6900 O   0  0  0  0  0  0  0  0  0  0  0  0
   -2.6876   -0.4147   -0.8239 C   0  0  0  0  0  0  0  0  0  0  0  0
    0.5812    0.7073    0.2113 O   0  0  0  0  0  0  0  0  0  0  0  0
    1.8910    0.5087    0.1288 C   0  0  0  0  0  0  0  0  0  0  0  0
    2.7473    1.5840    0.3802 C   0  0  0  0  0  0  0  0  0  0  0  0
    4.1301    1.4192    0.2978 C   0  0  0  0  0  0  0  0  0  0  0  0
    4.9888    2.4828    0.5647 O   0  0  0  0  0  0  0  0  0  0  0  0
    4.6594    0.1822   -0.0684 C   0  0  0  0  0  0  0  0  0  0  0  0
    3.8256   -0.9044   -0.3573 C   0  0  0  0  0  0  0  0  0  0  0  0
    4.4487   -2.0673   -0.8182 O   0  0  0  0  0  0  0  0  0  0  0  0
    2.4138   -0.7670   -0.2076 C   0  0  0  0  0  0  0  0  0  0  0  0
   -0.5470   -3.5720   -0.4609 H   0  0  0  0  0  0  0  0  0  0  0  0
   -1.4762    1.5232    1.7079 H   0  0  0  0  0  0  0  0  0  0  0  0
   -3.8288    2.2276    1.7792 H   0  0  0  0  0  0  0  0  0  0  0  0
   -6.4714    1.0314   -0.4233 H   0  0  0  0  0  0  0  0  0  0  0  0
   -4.6771   -1.2314   -2.3779 H   0  0  0  0  0  0  0  0  0  0  0  0
   -2.3742   -1.1167   -1.5856 H   0  0  0  0  0  0  0  0  0  0  0  0
    2.3324    2.5491    0.6464 H   0  0  0  0  0  0  0  0  0  0  0  0
    4.6356    3.3943    0.8348 H   0  0  0  0  0  0  0  0  0  0  0  0
    5.7321    0.0717   -0.1622 H   0  0  0  0  0  0  0  0  0  0  0  0
    3.9834   -2.7991   -1.3315 H   0  0  0  0  0  0  0  0  0  0  0  0
  1  2  2  0
  2  3  1  0
  3  4  1  0
  3  5  2  0
  5  6  1  0
  6  7  2  0
  7  8  1  0
  8  9  2  0
  9 10  1  0
  9 11  1  0
 11 12  1  0
 11 13  2  0
  5 14  1  0
 14 15  1  0
 15 16  2  0
 16 17  1  0
 17 18  1  0
 17 19  2  0
 19 20  1  0
 20 21  1  0
 20 22  2  0
 22  2  1  0
 13  6  1  0
 22 15  1  0
  4 23  1  0
  7 24  1  0
  8 25  1  0
 10 26  1  0
 12 27  1  0
 13 28  1  0
 16 29  1  0
 18 30  1  0
 19 31  1  0
 21 32  1  0
M  END

     RDKit          3D

 31 33  0  0  0  0  0  0  0  0999 V2000
   -1.8387   -2.8791   -0.7460 O   0  0  0  0  0  0  0  0  0  0  0  0
   -1.3607   -1.7580   -0.4255 C   0  0  0  0  0  0  0  0  0  0  0  0
    0.0239   -1.5467   -0.5184 C   0  0  0  0  0  0  0  0  0  0  0  0
    0.8686   -2.5484   -1.0040 O   0  0  0  0  0  0  0  0  0  0  0  0
    0.5473   -0.2950   -0.1421 C   0  0  0  0  0  0  0  0  0  0  0  0
    1.9969    0.0027   -0.1989 C   0  0  0  0  0  0  0  0  0  0  0  0
    2.4248    1.2624   -0.6513 C   0  0  0  0  0  0  0  0  0  0  0  0
    3.7868    1.5756   -0.6902 C   0  0  0  0  0  0  0  0  0  0  0  0
    4.7374    0.6382   -0.2654 C   0  0  0  0  0  0  0  0  0  0  0  0
    6.0974    0.9388   -0.3026 O   0  0  0  0  0  0  0  0  0  0  0  0
    4.3181   -0.6098    0.2052 C   0  0  0  0  0  0  0  0  0  0  0  0
    2.9567   -0.9262    0.2459 C   0  0  0  0  0  0  0  0  0  0  0  0
   -0.2743    0.6693    0.2626 O   0  0  0  0  0  0  0  0  0  0  0  0
   -1.5902    0.5166    0.3575 C   0  0  0  0  0  0  0  0  0  0  0  0
   -2.3699    1.5888    0.8009 C   0  0  0  0  0  0  0  0  0  0  0  0
   -3.7547    1.4579    0.9132 C   0  0  0  0  0  0  0  0  0  0  0  0
   -4.5118    2.5385    1.3610 O   0  0  0  0  0  0  0  0  0  0  0  0
   -4.3687    0.2463    0.5771 C   0  0  0  0  0  0  0  0  0  0  0  0
   -3.6043   -0.8414    0.1284 C   0  0  0  0  0  0  0  0  0  0  0  0
   -4.2453   -2.0351   -0.2068 O   0  0  0  0  0  0  0  0  0  0  0  0
   -2.1982   -0.7140    0.0184 C   0  0  0  0  0  0  0  0  0  0  0  0
    0.5255   -3.4573   -1.2888 H   0  0  0  0  0  0  0  0  0  0  0  0
    1.7041    2.0001   -0.9858 H   0  0  0  0  0  0  0  0  0  0  0  0
    4.1019    2.5462   -1.0496 H   0  0  0  0  0  0  0  0  0  0  0  0
    6.4325    1.8338   -0.6393 H   0  0  0  0  0  0  0  0  0  0  0  0
    5.0486   -1.3337    0.5462 H   0  0  0  0  0  0  0  0  0  0  0  0
    2.6571   -1.8851    0.6489 H   0  0  0  0  0  0  0  0  0  0  0  0
   -1.8975    2.5273    1.0616 H   0  0  0  0  0  0  0  0  0  0  0  0
   -5.5183    2.4742    1.4670 H   0  0  0  0  0  0  0  0  0  0  0  0
   -5.4438    0.1499    0.6630 H   0  0  0  0  0  0  0  0  0  0  0  0
   -5.2512   -2.1369   -0.1421 H   0  0  0  0  0  0  0  0  0  0  0  0
  1  2  2  0
  2  3  1  0
  3  4  1  0
  3  5  2  0
  5  6  1  0
  6  7  2  0
  7  8  1  0
  8  9  2  0
  9 10  1  0
  9 11  1  0
 11 12  2  0
  5 13  1  0
 13 14  1  0
 14 15  2  0
 15 16  1  0
 16 17  1  0
 16 18  2  0
 18 19  1  0
 19 20  1  0
 19 21  2  0
 21  2  1  0
 12  6  1  0
 21 14  1  0
  4 22  1  0
  7 23  1  0
  8 24  1  0
 10 25  1  0
 11 26  1  0
 12 27  1  0
 15 28  1  0
 17 29  1  0
 18 30  1  0
 20 31  1  0
M  END

     RDKit          3D

 33 35  0  0  0  0  0  0  0  0999 V2000
    6.2464    1.0602   -0.0330 C   0  0  0  0  0  0  0  0  0  0  0  0
    5.5207   -0.1558   -0.1860 O   0  0  0  0  0  0  0  0  0  0  0  0
    4.1216   -0.2419   -0.2149 C   0  0  0  0  0  0  0  0  0  0  0  0
    3.5339   -1.5056   -0.3158 C   0  0  0  0  0  0  0  0  0  0  0  0
    2.1439   -1.6486   -0.3293 C   0  0  0  0  0  0  0  0  0  0  0  0
    1.3049   -0.5189   -0.2579 C   0  0  0  0  0  0  0  0  0  0  0  0
   -0.1842   -0.6235   -0.2497 C   0  0  0  0  0  0  0  0  0  0  0  0
   -0.8645   -1.8066   -0.5812 C   0  0  0  0  0  0  0  0  0  0  0  0
   -2.2595   -1.8393   -0.5360 C   0  0  0  0  0  0  0  0  0  0  0  0
   -2.8406   -2.8972   -0.8922 O   0  0  0  0  0  0  0  0  0  0  0  0
   -2.9781   -0.6881   -0.1370 C   0  0  0  0  0  0  0  0  0  0  0  0
   -4.3979   -0.6166   -0.0212 C   0  0  0  0  0  0  0  0  0  0  0  0
   -5.2478   -1.7200   -0.1367 O   0  0  0  0  0  0  0  0  0  0  0  0
   -5.0054    0.6153    0.2495 C   0  0  0  0  0  0  0  0  0  0  0  0
   -4.2410    1.7632    0.4727 C   0  0  0  0  0  0  0  0  0  0  0  0
   -4.8531    2.9849    0.7428 O   0  0  0  0  0  0  0  0  0  0  0  0
   -2.8529    1.6886    0.4280 C   0  0  0  0  0  0  0  0  0  0  0  0
   -2.2180    0.4824    0.1215 C   0  0  0  0  0  0  0  0  0  0  0  0
   -0.8909    0.4581    0.0679 O   0  0  0  0  0  0  0  0  0  0  0  0
    1.9056    0.7517   -0.1606 C   0  0  0  0  0  0  0  0  0  0  0  0
    3.2955    0.8901   -0.1381 C   0  0  0  0  0  0  0  0  0  0  0  0
    6.0404    1.7406   -0.8905 H   0  0  0  0  0  0  0  0  0  0  0  0
    7.3348    0.8323   -0.0097 H   0  0  0  0  0  0  0  0  0  0  0  0
    5.9663    1.5565    0.9253 H   0  0  0  0  0  0  0  0  0  0  0  0
    4.1583   -2.3860   -0.3748 H   0  0  0  0  0  0  0  0  0  0  0  0
    1.7464   -2.6497   -0.3774 H   0  0  0  0  0  0  0  0  0  0  0  0
   -0.3384   -2.6925   -0.9088 H   0  0  0  0  0  0  0  0  0  0  0  0
   -4.9538   -2.6851   -0.0777 H   0  0  0  0  0  0  0  0  0  0  0  0
   -6.0843    0.6745    0.3123 H   0  0  0  0  0  0  0  0  0  0  0  0
   -5.8588    3.0697    0.7892 H   0  0  0  0  0  0  0  0  0  0  0  0
   -2.2637    2.5781    0.6134 H   0  0  0  0  0  0  0  0  0  0  0  0
    1.3003    1.6451   -0.0986 H   0  0  0  0  0  0  0  0  0  0  0  0
    3.7142    1.8840   -0.0604 H   0  0  0  0  0  0  0  0  0  0  0  0
  1  2  1  0
  2  3  1  0
  3  4  2  0
  4  5  1  0
  5  6  2  0
  6  7  1  0
  7  8  2  0
  8  9  1  0
  9 10  2  0
  9 11  1  0
 11 12  2  0
 12 13  1  0
 12 14  1  0
 14 15  2  0
 15 16  1  0
 15 17  1  0
 17 18  2  0
 18 19  1  0
  6 20  1  0
 20 21  2  0
 21  3  1  0
 19  7  1  0
 18 11  1  0
  1 22  1  0
  1 23  1  0
  1 24  1  0
  4 25  1  0
  5 26  1  0
  8 27  1  0
 13 28  1  0
 14 29  1  0
 16 30  1  0
 17 31  1  0
 20 32  1  0
 21 33  1  0
M  END

     RDKit          3D

 28 31  0  0  0  0  0  0  0  0999 V2000
   -0.8977    3.6172    0.7045 O   0  0  0  0  0  0  0  0  0  0  0  0
   -0.4232    2.4700    0.4877 C   0  0  0  0  0  0  0  0  0  0  0  0
    0.9000    2.3034    0.4999 O   0  0  0  0  0  0  0  0  0  0  0  0
    1.4865    1.1265    0.2809 C   0  0  0  0  0  0  0  0  0  0  0  0
    2.8865    1.0040    0.3047 C   0  0  0  0  0  0  0  0  0  0  0  0
    3.6982    2.1101    0.5580 O   0  0  0  0  0  0  0  0  0  0  0  0
    3.4827   -0.2463    0.0712 C   0  0  0  0  0  0  0  0  0  0  0  0
    4.8718   -0.3592    0.0966 O   0  0  0  0  0  0  0  0  0  0  0  0
    2.6865   -1.3752   -0.1862 C   0  0  0  0  0  0  0  0  0  0  0  0
    1.2862   -1.2625   -0.2120 C   0  0  0  0  0  0  0  0  0  0  0  0
    0.4337   -2.3566   -0.4643 C   0  0  0  0  0  0  0  0  0  0  0  0
    0.9081   -3.5038   -0.6811 O   0  0  0  0  0  0  0  0  0  0  0  0
   -0.8895   -2.1898   -0.4764 O   0  0  0  0  0  0  0  0  0  0  0  0
   -1.4763   -1.0129   -0.2575 C   0  0  0  0  0  0  0  0  0  0  0  0
   -2.8767   -0.8913   -0.2815 C   0  0  0  0  0  0  0  0  0  0  0  0
   -3.6829   -2.0018   -0.5355 O   0  0  0  0  0  0  0  0  0  0  0  0
   -3.4732    0.3639   -0.0469 C   0  0  0  0  0  0  0  0  0  0  0  0
   -4.8597    0.5136   -0.0648 O   0  0  0  0  0  0  0  0  0  0  0  0
   -2.6756    1.4885    0.2096 C   0  0  0  0  0  0  0  0  0  0  0  0
   -1.2756    1.3757    0.2354 C   0  0  0  0  0  0  0  0  0  0  0  0
   -0.6887    0.1227    0.0010 C   0  0  0  0  0  0  0  0  0  0  0  0
    0.6990   -0.0093    0.0224 C   0  0  0  0  0  0  0  0  0  0  0  0
    3.3137    3.0311    0.7320 H   0  0  0  0  0  0  0  0  0  0  0  0
    5.3353   -1.2453   -0.0675 H   0  0  0  0  0  0  0  0  0  0  0  0
    3.1636   -2.3313   -0.3640 H   0  0  0  0  0  0  0  0  0  0  0  0
   -3.2947   -2.9213   -0.7090 H   0  0  0  0  0  0  0  0  0  0  0  0
   -5.4835   -0.2639   -0.2446 H   0  0  0  0  0  0  0  0  0  0  0  0
   -3.1545    2.4439    0.3873 H   0  0  0  0  0  0  0  0  0  0  0  0
  1  2  2  0
  2  3  1  0
  3  4  1  0
  4  5  2  0
  5  6  1  0
  5  7  1  0
  7  8  1  0
  7  9  2  0
  9 10  1  0
 10 11  1  0
 11 12  2  0
 11 13  1  0
 13 14  1  0
 14 15  1  0
 15 16  1  0
 15 17  2  0
 17 18  1  0
 17 19  1  0
 19 20  2  0
 20 21  1  0
 21 22  1  0
 20  2  1  0
 22  4  1  0
 22 10  2  0
 21 14  2  0
  6 23  1  0
  8 24  1  0
  9 25  1  0
 16 26  1  0
 18 27  1  0
 19 28  1  0
M  END

     RDKit          3D

 35 37  0  0  0  0  0  0  0  0999 V2000
    5.6627    2.2775   -0.4099 C   0  0  0  0  0  0  0  0  0  0  0  0
    4.2601    2.2258   -0.6549 O   0  0  0  0  0  0  0  0  0  0  0  0
    3.4530    1.1041   -0.3966 C   0  0  0  0  0  0  0  0  0  0  0  0
    3.9818   -0.1229    0.0454 C   0  0  0  0  0  0  0  0  0  0  0  0
    3.1475   -1.2223    0.2907 C   0  0  0  0  0  0  0  0  0  0  0  0
    3.7628   -2.4447    0.5818 O   0  0  0  0  0  0  0  0  0  0  0  0
    1.7373   -1.0688    0.1861 C   0  0  0  0  0  0  0  0  0  0  0  0
    0.8021   -2.0451    0.5958 C   0  0  0  0  0  0  0  0  0  0  0  0
    1.1735   -3.1032    1.1736 O   0  0  0  0  0  0  0  0  0  0  0  0
   -0.5717   -1.8129    0.4178 C   0  0  0  0  0  0  0  0  0  0  0  0
   -1.5141   -2.7412    0.8615 O   0  0  0  0  0  0  0  0  0  0  0  0
   -0.9892   -0.6056   -0.1728 C   0  0  0  0  0  0  0  0  0  0  0  0
   -2.4159   -0.3053   -0.4523 C   0  0  0  0  0  0  0  0  0  0  0  0
   -3.3062   -1.3012   -0.9009 C   0  0  0  0  0  0  0  0  0  0  0  0
   -4.6409   -0.9864   -1.1649 C   0  0  0  0  0  0  0  0  0  0  0  0
   -5.1031    0.3249   -1.0175 C   0  0  0  0  0  0  0  0  0  0  0  0
   -6.4389    0.6079   -1.2950 O   0  0  0  0  0  0  0  0  0  0  0  0
   -4.2183    1.3338   -0.6073 C   0  0  0  0  0  0  0  0  0  0  0  0
   -4.6658    2.6479   -0.4804 O   0  0  0  0  0  0  0  0  0  0  0  0
   -2.8802    1.0166   -0.3298 C   0  0  0  0  0  0  0  0  0  0  0  0
   -0.0872    0.3224   -0.4703 O   0  0  0  0  0  0  0  0  0  0  0  0
    1.2197    0.1558   -0.3027 C   0  0  0  0  0  0  0  0  0  0  0  0
    2.0764    1.2191   -0.5992 C   0  0  0  0  0  0  0  0  0  0  0  0
    5.8704    2.0727    0.6620 H   0  0  0  0  0  0  0  0  0  0  0  0
    6.0383    3.2913   -0.6612 H   0  0  0  0  0  0  0  0  0  0  0  0
    6.1893    1.5363   -1.0502 H   0  0  0  0  0  0  0  0  0  0  0  0
    5.0514   -0.2475    0.1598 H   0  0  0  0  0  0  0  0  0  0  0  0
    3.3358   -3.3366    0.3899 H   0  0  0  0  0  0  0  0  0  0  0  0
   -1.2521   -3.6156    1.3011 H   0  0  0  0  0  0  0  0  0  0  0  0
   -2.9650   -2.3143   -1.0830 H   0  0  0  0  0  0  0  0  0  0  0  0
   -5.3171   -1.7641   -1.5047 H   0  0  0  0  0  0  0  0  0  0  0  0
   -6.8130    1.5437   -1.2301 H   0  0  0  0  0  0  0  0  0  0  0  0
   -4.0429    3.3960   -0.1820 H   0  0  0  0  0  0  0  0  0  0  0  0
   -2.2035    1.8039   -0.0205 H   0  0  0  0  0  0  0  0  0  0  0  0
    1.6633    2.1580   -0.9502 H   0  0  0  0  0  0  0  0  0  0  0  0
  1  2  1  0
  2  3  1  0
  3  4  2  0
  4  5  1  0
  5  6  1  0
  5  7  2  0
  7  8  1  0
  8  9  2  0
  8 10  1  0
 10 11  1  0
 10 12  2  0
 12 13  1  0
 13 14  2  0
 14 15  1  0
 15 16  2  0
 16 17  1  0
 16 18  1  0
 18 19  1  0
 18 20  2  0
 12 21  1  0
 21 22  1  0
 22 23  2  0
 23  3  1  0
 22  7  1  0
 20 13  1  0
  1 24  1  0
  1 25  1  0
  1 26  1  0
  4 27  1  0
  6 28  1  0
 11 29  1  0
 14 30  1  0
 15 31  1  0
 17 32  1  0
 19 33  1  0
 20 34  1  0
 23 35  1  0
M  END

     RDKit          3D

 82 86  0  0  0  0  0  0  0  0999 V2000
   -5.7321   -2.5735    0.3130 C   0  0  0  0  0  0  0  0  0  0  0  0
   -5.2235   -1.3216    1.0668 C   0  0  0  0  0  0  0  0  0  0  0  0
   -5.5675   -1.4917    2.5633 C   0  0  0  0  0  0  0  0  0  0  0  0
   -5.9591   -0.0545    0.5359 C   0  0  0  0  0  0  0  0  0  0  0  0
   -5.3729    0.4452   -0.7882 C   0  0  0  0  0  0  0  0  0  0  0  0
   -3.8497    0.8114   -0.7065 C   0  0  2  0  0  0  0  0  0  0  0  0
   -3.7311    2.3356   -0.7425 C   0  0  0  0  0  0  0  0  0  0  0  0
   -3.4313    2.9940    0.2948 O   0  0  0  0  0  0  0  0  0  0  0  0
   -4.0063    3.0224   -1.9248 O   0  0  0  0  0  0  0  0  0  0  0  0
   -3.1351    0.2198   -1.9505 C   0  0  0  0  0  0  0  0  0  0  0  0
   -1.6309    0.5151   -1.9695 C   0  0  0  0  0  0  0  0  0  0  0  0
   -0.8601    0.0322   -0.6935 C   0  0  2  0  0  0  0  0  0  0  0  0
   -0.7117   -1.5326   -0.7728 C   0  0  0  0  0  0  0  0  0  0  0  0
   -1.6686    0.3170    0.5862 C   0  0  0  0  0  0  0  0  0  0  0  0
   -1.0367    0.4389    1.7836 C   0  0  0  0  0  0  0  0  0  0  0  0
    0.4635    0.5244    1.9739 C   0  0  0  0  0  0  0  0  0  0  0  0
    1.2823    0.2213    0.6896 C   0  0  2  0  0  0  0  0  0  0  0  0
    2.8457    0.4820    0.7682 C   0  0  1  0  0  0  0  0  0  0  0  0
    3.1460    1.9994    0.9930 C   0  0  0  0  0  0  0  0  0  0  0  0
    3.4544   -0.3083    1.9496 C   0  0  0  0  0  0  0  0  0  0  0  0
    4.9911   -0.2196    2.0473 C   0  0  0  0  0  0  0  0  0  0  0  0
    5.7570   -0.0403    0.7071 C   0  0  2  0  0  0  0  0  0  0  0  0
    6.1536    1.2979    0.5327 O   0  0  0  0  0  0  0  0  0  0  0  0
    4.9870   -0.5517   -0.5550 C   0  0  1  0  0  0  0  0  0  0  0  0
    5.7585   -0.0689   -1.8139 C   0  0  0  0  0  0  0  0  0  0  0  0
    5.0873   -2.1183   -0.5344 C   0  0  0  0  0  0  0  0  0  0  0  0
    4.4866   -2.6787   -1.6733 O   0  0  0  0  0  0  0  0  0  0  0  0
    3.4462   -0.1132   -0.5616 C   0  0  2  0  0  0  0  0  0  0  0  0
    2.9281    0.6813   -1.7814 C   0  0  0  0  0  0  0  0  0  0  0  0
    1.3976    0.5630   -1.9068 C   0  0  0  0  0  0  0  0  0  0  0  0
    0.5527    0.7930   -0.5912 C   0  0  1  0  0  0  0  0  0  0  0  0
    0.3081    2.3446   -0.4329 C   0  0  0  0  0  0  0  0  0  0  0  0
   -3.1950    0.2356    0.5956 C   0  0  2  0  0  0  0  0  0  0  0  0
   -3.6711   -1.2066    0.8895 C   0  0  0  0  0  0  0  0  0  0  0  0
   -6.8331   -2.6853    0.4245 H   0  0  0  0  0  0  0  0  0  0  0  0
   -5.4955   -2.5135   -0.7724 H   0  0  0  0  0  0  0  0  0  0  0  0
   -5.2458   -3.4903    0.7122 H   0  0  0  0  0  0  0  0  0  0  0  0
   -5.1132   -2.4203    2.9705 H   0  0  0  0  0  0  0  0  0  0  0  0
   -5.1853   -0.6305    3.1529 H   0  0  0  0  0  0  0  0  0  0  0  0
   -6.6693   -1.5526    2.7029 H   0  0  0  0  0  0  0  0  0  0  0  0
   -7.0429   -0.2698    0.3986 H   0  0  0  0  0  0  0  0  0  0  0  0
   -5.8999    0.7742    1.2803 H   0  0  0  0  0  0  0  0  0  0  0  0
   -5.9810    1.3152   -1.1257 H   0  0  0  0  0  0  0  0  0  0  0  0
   -5.5596   -0.3407   -1.5550 H   0  0  0  0  0  0  0  0  0  0  0  0
   -3.9383    4.0310   -1.9683 H   0  0  0  0  0  0  0  0  0  0  0  0
   -3.2964   -0.8732   -2.0076 H   0  0  0  0  0  0  0  0  0  0  0  0
   -3.5860    0.6313   -2.8791 H   0  0  0  0  0  0  0  0  0  0  0  0
   -1.1941    0.0323   -2.8684 H   0  0  0  0  0  0  0  0  0  0  0  0
   -1.5140    1.5993   -2.1469 H   0  0  0  0  0  0  0  0  0  0  0  0
    0.2215   -1.8790   -1.2428 H   0  0  0  0  0  0  0  0  0  0  0  0
   -0.7300   -1.9956    0.2370 H   0  0  0  0  0  0  0  0  0  0  0  0
   -1.5302   -2.0049   -1.3447 H   0  0  0  0  0  0  0  0  0  0  0  0
   -1.6333    0.5519    2.6866 H   0  0  0  0  0  0  0  0  0  0  0  0
    0.7409   -0.2064    2.7644 H   0  0  0  0  0  0  0  0  0  0  0  0
    0.6849    1.5302    2.3818 H   0  0  0  0  0  0  0  0  0  0  0  0
    1.2230   -0.8818    0.6322 H   0  0  0  0  0  0  0  0  0  0  0  0
    2.6037    2.3851    1.8759 H   0  0  0  0  0  0  0  0  0  0  0  0
    4.1929    2.2163    1.2269 H   0  0  0  0  0  0  0  0  0  0  0  0
    2.8933    2.6357    0.1307 H   0  0  0  0  0  0  0  0  0  0  0  0
    3.0331    0.0593    2.9106 H   0  0  0  0  0  0  0  0  0  0  0  0
    3.1612   -1.3788    1.8730 H   0  0  0  0  0  0  0  0  0  0  0  0
    5.3519   -1.1489    2.5437 H   0  0  0  0  0  0  0  0  0  0  0  0
    5.2642    0.6119    2.7360 H   0  0  0  0  0  0  0  0  0  0  0  0
    6.6963   -0.6421    0.7989 H   0  0  0  0  0  0  0  0  0  0  0  0
    6.8958    1.4732    1.1675 H   0  0  0  0  0  0  0  0  0  0  0  0
    5.3989   -0.5753   -2.7339 H   0  0  0  0  0  0  0  0  0  0  0  0
    6.8406   -0.3006   -1.7197 H   0  0  0  0  0  0  0  0  0  0  0  0
    5.6602    1.0295   -1.9543 H   0  0  0  0  0  0  0  0  0  0  0  0
    6.1520   -2.4450   -0.5133 H   0  0  0  0  0  0  0  0  0  0  0  0
    4.6095   -2.5139    0.3903 H   0  0  0  0  0  0  0  0  0  0  0  0
    4.1432   -3.5743   -1.4063 H   0  0  0  0  0  0  0  0  0  0  0  0
    2.9196   -1.0832   -0.6946 H   0  0  0  0  0  0  0  0  0  0  0  0
    3.3360    0.2541   -2.7208 H   0  0  0  0  0  0  0  0  0  0  0  0
    3.2549    1.7398   -1.7707 H   0  0  0  0  0  0  0  0  0  0  0  0
    1.0632    1.2519   -2.7112 H   0  0  0  0  0  0  0  0  0  0  0  0
    1.2050   -0.4306   -2.3427 H   0  0  0  0  0  0  0  0  0  0  0  0
   -0.7632    2.6036   -0.3739 H   0  0  0  0  0  0  0  0  0  0  0  0
    0.7122    2.7686    0.4975 H   0  0  0  0  0  0  0  0  0  0  0  0
    0.7322    2.9403   -1.2621 H   0  0  0  0  0  0  0  0  0  0  0  0
   -3.5529    0.8496    1.4539 H   0  0  0  0  0  0  0  0  0  0  0  0
   -3.3341   -1.8691    0.0709 H   0  0  0  0  0  0  0  0  0  0  0  0
   -3.1548   -1.5733    1.8016 H   0  0  0  0  0  0  0  0  0  0  0  0
  1  2  1  0
  2  3  1  0
  2  4  1  0
  4  5  1  0
  5  6  1  0
  6  7  1  1
  7  8  2  0
  7  9  1  0
  6 10  1  0
 10 11  1  0
 11 12  1  0
 12 13  1  6
 12 14  1  0
 14 15  2  0
 15 16  1  0
 16 17  1  0
 17 18  1  0
 18 19  1  1
 18 20  1  0
 20 21  1  0
 21 22  1  0
 22 23  1  0
 22 24  1  0
 24 25  1  6
 24 26  1  0
 26 27  1  0
 24 28  1  0
 28 29  1  0
 29 30  1  0
 30 31  1  0
 31 32  1  1
 14 33  1  0
 33 34  1  0
 34  2  1  0
 33  6  1  0
 31 12  1  0
 31 17  1  0
 28 18  1  0
  1 35  1  0
  1 36  1  0
  1 37  1  0
  3 38  1  0
  3 39  1  0
  3 40  1  0
  4 41  1  0
  4 42  1  0
  5 43  1  0
  5 44  1  0
  9 45  1  0
 10 46  1  0
 10 47  1  0
 11 48  1  0
 11 49  1  0
 13 50  1  0
 13 51  1  0
 13 52  1  0
 15 53  1  0
 16 54  1  0
 16 55  1  0
 17 56  1  6
 19 57  1  0
 19 58  1  0
 19 59  1  0
 20 60  1  0
 20 61  1  0
 21 62  1  0
 21 63  1  0
 22 64  1  1
 23 65  1  0
 25 66  1  0
 25 67  1  0
 25 68  1  0
 26 69  1  0
 26 70  1  0
 27 71  1  0
 28 72  1  6
 29 73  1  0
 29 74  1  0
 30 75  1  0
 30 76  1  0
 32 77  1  0
 32 78  1  0
 32 79  1  0
 33 80  1  1
 34 81  1  0
 34 82  1  0
M  END

     RDKit          3D

 33 35  0  0  0  0  0  0  0  0999 V2000
    3.9458    3.6633    2.4601 C   0  0  0  0  0  0  0  0  0  0  0  0
    2.9620    2.6437    2.6016 O   0  0  0  0  0  0  0  0  0  0  0  0
    2.2035    2.1205    1.5435 C   0  0  0  0  0  0  0  0  0  0  0  0
    2.3614    2.5538    0.2175 C   0  0  0  0  0  0  0  0  0  0  0  0
    1.5896    2.0065   -0.8125 C   0  0  0  0  0  0  0  0  0  0  0  0
    1.8668    2.4236   -2.1166 O   0  0  0  0  0  0  0  0  0  0  0  0
    0.5952    1.0409   -0.5122 C   0  0  0  0  0  0  0  0  0  0  0  0
    0.4672    0.5745    0.8144 C   0  0  0  0  0  0  0  0  0  0  0  0
    1.2678    1.1250    1.8290 C   0  0  0  0  0  0  0  0  0  0  0  0
   -0.5075   -0.4968    1.1294 C   0  0  0  0  0  0  0  0  0  0  0  0
   -0.7180   -0.8262    2.3296 O   0  0  0  0  0  0  0  0  0  0  0  0
   -1.2120   -1.2018    0.0321 C   0  0  0  0  0  0  0  0  0  0  0  0
   -2.0013   -2.3315    0.3073 C   0  0  0  0  0  0  0  0  0  0  0  0
   -2.6460   -3.0200   -0.7264 C   0  0  0  0  0  0  0  0  0  0  0  0
   -3.5247   -4.1985   -0.4244 C   0  0  0  0  0  0  0  0  0  0  0  0
   -2.4996   -2.5772   -2.0447 C   0  0  0  0  0  0  0  0  0  0  0  0
   -1.7050   -1.4665   -2.3450 C   0  0  0  0  0  0  0  0  0  0  0  0
   -1.5303   -1.1455   -3.6930 O   0  0  0  0  0  0  0  0  0  0  0  0
   -1.0877   -0.7370   -1.2962 C   0  0  0  0  0  0  0  0  0  0  0  0
   -0.3692    0.5432   -1.5271 C   0  0  0  0  0  0  0  0  0  0  0  0
   -0.6952    1.2798   -2.4958 O   0  0  0  0  0  0  0  0  0  0  0  0
    3.4821    4.5877    2.0556 H   0  0  0  0  0  0  0  0  0  0  0  0
    4.3789    3.8895    3.4557 H   0  0  0  0  0  0  0  0  0  0  0  0
    4.7600    3.3179    1.7888 H   0  0  0  0  0  0  0  0  0  0  0  0
    3.1010    3.3026   -0.0328 H   0  0  0  0  0  0  0  0  0  0  0  0
    1.5245    1.9480   -2.9404 H   0  0  0  0  0  0  0  0  0  0  0  0
    1.1691    0.7823    2.8518 H   0  0  0  0  0  0  0  0  0  0  0  0
   -2.1154   -2.6791    1.3271 H   0  0  0  0  0  0  0  0  0  0  0  0
   -3.4097   -4.9773   -1.2085 H   0  0  0  0  0  0  0  0  0  0  0  0
   -3.2600   -4.6549    0.5533 H   0  0  0  0  0  0  0  0  0  0  0  0
   -4.5847   -3.8694   -0.3932 H   0  0  0  0  0  0  0  0  0  0  0  0
   -2.9868   -3.1133   -2.8508 H   0  0  0  0  0  0  0  0  0  0  0  0
   -0.8217   -0.5078   -4.0287 H   0  0  0  0  0  0  0  0  0  0  0  0
  1  2  1  0
  2  3  1  0
  3  4  2  0
  4  5  1  0
  5  6  1  0
  5  7  2  0
  7  8  1  0
  8  9  2  0
  8 10  1  0
 10 11  2  0
 10 12  1  0
 12 13  2  0
 13 14  1  0
 14 15  1  0
 14 16  2  0
 16 17  1  0
 17 18  1  0
 17 19  2  0
 19 20  1  0
 20 21  2  0
  9  3  1  0
 19 12  1  0
 20  7  1  0
  1 22  1  0
  1 23  1  0
  1 24  1  0
  4 25  1  0
  6 26  1  0
  9 27  1  0
 13 28  1  0
 15 29  1  0
 15 30  1  0
 15 31  1  0
 16 32  1  0
 18 33  1  0
M  END

     RDKit          3D

 81 85  0  0  0  0  0  0  0  0999 V2000
   -4.6131    3.2158    0.3612 C   0  0  0  0  0  0  0  0  0  0  0  0
   -4.5676    1.9576    0.8297 C   0  0  0  0  0  0  0  0  0  0  0  0
   -4.6270    1.7444    2.3235 C   0  0  0  0  0  0  0  0  0  0  0  0
   -4.5247    0.7830   -0.1473 C   0  0  2  0  0  0  0  0  0  0  0  0
   -5.8217   -0.0593   -0.0870 C   0  0  0  0  0  0  0  0  0  0  0  0
   -5.3897   -1.5371   -0.0355 C   0  0  0  0  0  0  0  0  0  0  0  0
   -3.9332   -1.5359   -0.5145 C   0  0  2  0  0  0  0  0  0  0  0  0
   -3.9442   -1.5407   -2.0782 C   0  0  0  0  0  0  0  0  0  0  0  0
   -3.0885   -2.7187    0.0025 C   0  0  0  0  0  0  0  0  0  0  0  0
   -1.5851   -2.5279   -0.3379 C   0  0  0  0  0  0  0  0  0  0  0  0
   -0.9742   -1.1324    0.0958 C   0  0  2  0  0  0  0  0  0  0  0  0
   -0.8663   -1.2271    1.6701 C   0  0  0  0  0  0  0  0  0  0  0  0
   -1.9488    0.0538   -0.3134 C   0  0  2  0  0  0  0  0  0  0  0  0
   -1.4223    1.4105    0.1966 C   0  0  0  0  0  0  0  0  0  0  0  0
    0.0020    1.7138   -0.3051 C   0  0  0  0  0  0  0  0  0  0  0  0
    1.0172    0.5524   -0.0605 C   0  0  2  0  0  0  0  0  0  0  0  0
    2.5334    0.8994   -0.4182 C   0  0  1  0  0  0  0  0  0  0  0  0
    2.7114    1.2442   -1.9347 C   0  0  0  0  0  0  0  0  0  0  0  0
    2.9757    2.1451    0.4217 C   0  0  0  0  0  0  0  0  0  0  0  0
    4.4890    2.4090    0.4140 C   0  0  0  0  0  0  0  0  0  0  0  0
    5.2935    1.1903    0.8818 C   0  0  2  0  0  0  0  0  0  0  0  0
    6.6663    1.4931    0.8174 O   0  0  0  0  0  0  0  0  0  0  0  0
    4.9811   -0.0997    0.0585 C   0  0  0  0  0  0  0  0  0  0  0  0
    5.6809   -1.2818    0.7874 C   0  0  0  0  0  0  0  0  0  0  0  0
    5.5986   -0.0153   -1.3615 C   0  0  0  0  0  0  0  0  0  0  0  0
    3.4138   -0.3266    0.0493 C   0  0  2  0  0  0  0  0  0  0  0  0
    2.9481   -1.6503   -0.6084 C   0  0  0  0  0  0  0  0  0  0  0  0
    1.4897   -1.9700   -0.2410 C   0  0  0  0  0  0  0  0  0  0  0  0
    0.4667   -0.8415   -0.5927 C   0  0  1  0  0  0  0  0  0  0  0  0
    0.3436   -0.8128   -2.1604 C   0  0  0  0  0  0  0  0  0  0  0  0
   -3.4075   -0.2398    0.1269 C   0  0  1  0  0  0  0  0  0  0  0  0
   -4.6003    3.4202   -0.7052 H   0  0  0  0  0  0  0  0  0  0  0  0
   -4.6648    4.0609    1.0403 H   0  0  0  0  0  0  0  0  0  0  0  0
   -5.4503    2.3459    2.7628 H   0  0  0  0  0  0  0  0  0  0  0  0
   -4.8176    0.6826    2.5806 H   0  0  0  0  0  0  0  0  0  0  0  0
   -3.6644    2.0566    2.7797 H   0  0  0  0  0  0  0  0  0  0  0  0
   -4.3929    1.1659   -1.1849 H   0  0  0  0  0  0  0  0  0  0  0  0
   -6.4313    0.1281   -0.9977 H   0  0  0  0  0  0  0  0  0  0  0  0
   -6.4503    0.1789    0.7996 H   0  0  0  0  0  0  0  0  0  0  0  0
   -5.4519   -1.8978    1.0145 H   0  0  0  0  0  0  0  0  0  0  0  0
   -6.0502   -2.1766   -0.6619 H   0  0  0  0  0  0  0  0  0  0  0  0
   -4.5496   -0.7112   -2.4959 H   0  0  0  0  0  0  0  0  0  0  0  0
   -2.9356   -1.4684   -2.5247 H   0  0  0  0  0  0  0  0  0  0  0  0
   -4.3906   -2.4887   -2.4466 H   0  0  0  0  0  0  0  0  0  0  0  0
   -3.4485   -3.6662   -0.4567 H   0  0  0  0  0  0  0  0  0  0  0  0
   -3.2183   -2.8417    1.0980 H   0  0  0  0  0  0  0  0  0  0  0  0
   -1.4810   -2.7313   -1.4115 H   0  0  0  0  0  0  0  0  0  0  0  0
   -1.0212   -3.3521    0.1504 H   0  0  0  0  0  0  0  0  0  0  0  0
   -0.5054   -0.3142    2.1716 H   0  0  0  0  0  0  0  0  0  0  0  0
   -1.8334   -1.4440    2.1540 H   0  0  0  0  0  0  0  0  0  0  0  0
   -0.2349   -2.0705    2.0018 H   0  0  0  0  0  0  0  0  0  0  0  0
   -1.9895    0.1574   -1.4099 H   0  0  0  0  0  0  0  0  0  0  0  0
   -2.0735    2.2218   -0.1899 H   0  0  0  0  0  0  0  0  0  0  0  0
   -1.4654    1.4707    1.3035 H   0  0  0  0  0  0  0  0  0  0  0  0
   -0.0626    1.9858   -1.3751 H   0  0  0  0  0  0  0  0  0  0  0  0
    0.3286    2.6263    0.2312 H   0  0  0  0  0  0  0  0  0  0  0  0
    1.0571    0.4618    1.0383 H   0  0  0  0  0  0  0  0  0  0  0  0
    3.3846    2.1055   -2.1051 H   0  0  0  0  0  0  0  0  0  0  0  0
    1.7676    1.5425   -2.4217 H   0  0  0  0  0  0  0  0  0  0  0  0
    3.1327    0.4080   -2.5201 H   0  0  0  0  0  0  0  0  0  0  0  0
    2.6577    2.0243    1.4816 H   0  0  0  0  0  0  0  0  0  0  0  0
    2.4838    3.0637    0.0357 H   0  0  0  0  0  0  0  0  0  0  0  0
    4.8358    2.7469   -0.5827 H   0  0  0  0  0  0  0  0  0  0  0  0
    4.6912    3.2531    1.1082 H   0  0  0  0  0  0  0  0  0  0  0  0
    5.0101    0.9973    1.9461 H   0  0  0  0  0  0  0  0  0  0  0  0
    6.8788    2.0502    1.6133 H   0  0  0  0  0  0  0  0  0  0  0  0
    5.6849   -2.2015    0.1675 H   0  0  0  0  0  0  0  0  0  0  0  0
    5.1871   -1.5045    1.7579 H   0  0  0  0  0  0  0  0  0  0  0  0
    6.7467   -1.0463    0.9969 H   0  0  0  0  0  0  0  0  0  0  0  0
    5.2791   -0.8717   -1.9885 H   0  0  0  0  0  0  0  0  0  0  0  0
    6.7083   -0.0500   -1.3055 H   0  0  0  0  0  0  0  0  0  0  0  0
    5.3492    0.9245   -1.8826 H   0  0  0  0  0  0  0  0  0  0  0  0
    3.1689   -0.4594    1.1302 H   0  0  0  0  0  0  0  0  0  0  0  0
    3.0982   -1.6520   -1.7030 H   0  0  0  0  0  0  0  0  0  0  0  0
    3.5474   -2.5007   -0.2290 H   0  0  0  0  0  0  0  0  0  0  0  0
    1.1998   -2.9174   -0.7451 H   0  0  0  0  0  0  0  0  0  0  0  0
    1.5008   -2.1786    0.8437 H   0  0  0  0  0  0  0  0  0  0  0  0
   -0.1541   -1.6977   -2.5832 H   0  0  0  0  0  0  0  0  0  0  0  0
   -0.1792    0.0795   -2.5480 H   0  0  0  0  0  0  0  0  0  0  0  0
    1.3183   -0.8299   -2.6659 H   0  0  0  0  0  0  0  0  0  0  0  0
   -3.3970   -0.3816    1.2230 H   0  0  0  0  0  0  0  0  0  0  0  0
  1  2  2  3
  2  3  1  0
  2  4  1  0
  4  5  1  0
  5  6  1  0
  6  7  1  0
  7  8  1  6
  7  9  1  0
  9 10  1  0
 10 11  1  0
 11 12  1  1
 11 13  1  0
 13 14  1  0
 14 15  1  0
 15 16  1  0
 16 17  1  0
 17 18  1  6
 17 19  1  0
 19 20  1  0
 20 21  1  0
 21 22  1  0
 21 23  1  0
 23 24  1  0
 23 25  1  0
 23 26  1  0
 26 27  1  0
 27 28  1  0
 28 29  1  0
 29 30  1  6
 13 31  1  0
 31  4  1  0
 31  7  1  0
 29 11  1  0
 29 16  1  0
 26 17  1  0
  1 32  1  0
  1 33  1  0
  3 34  1  0
  3 35  1  0
  3 36  1  0
  4 37  1  6
  5 38  1  0
  5 39  1  0
  6 40  1  0
  6 41  1  0
  8 42  1  0
  8 43  1  0
  8 44  1  0
  9 45  1  0
  9 46  1  0
 10 47  1  0
 10 48  1  0
 12 49  1  0
 12 50  1  0
 12 51  1  0
 13 52  1  6
 14 53  1  0
 14 54  1  0
 15 55  1  0
 15 56  1  0
 16 57  1  1
 18 58  1  0
 18 59  1  0
 18 60  1  0
 19 61  1  0
 19 62  1  0
 20 63  1  0
 20 64  1  0
 21 65  1  1
 22 66  1  0
 24 67  1  0
 24 68  1  0
 24 69  1  0
 25 70  1  0
 25 71  1  0
 25 72  1  0
 26 73  1  1
 27 74  1  0
 27 75  1  0
 28 76  1  0
 28 77  1  0
 30 78  1  0
 30 79  1  0
 30 80  1  0
 31 81  1  1
M  END

     RDKit          3D

 36 36  0  0  0  0  0  0  0  0999 V2000
    0.2068    2.3517   -1.4539 C   0  0  0  0  0  0  0  0  0  0  0  0
   -0.8795    1.4253   -0.9573 C   0  0  0  0  0  0  0  0  0  0  0  0
   -2.1283    1.5810   -1.4323 C   0  0  0  0  0  0  0  0  0  0  0  0
   -3.2428    0.7408   -0.9722 C   0  0  0  0  0  0  0  0  0  0  0  0
   -4.3960    0.9282   -1.4410 O   0  0  0  0  0  0  0  0  0  0  0  0
   -3.0283   -0.3039    0.0830 C   0  0  0  0  0  0  0  0  0  0  0  0
   -1.5681   -0.8264    0.0734 C   0  0  0  0  0  0  0  0  0  0  0  0
   -1.3435   -1.6680   -1.2137 C   0  0  0  0  0  0  0  0  0  0  0  0
   -1.3877   -1.7680    1.2899 C   0  0  0  0  0  0  0  0  0  0  0  0
   -0.5797    0.4065    0.1575 C   0  0  2  0  0  0  0  0  0  0  0  0
   -0.7824    1.0576    1.3955 O   0  0  0  0  0  0  0  0  0  0  0  0
    0.8685   -0.0778    0.0427 C   0  0  0  0  0  0  0  0  0  0  0  0
    1.6646   -0.2953    1.1055 C   0  0  0  0  0  0  0  0  0  0  0  0
    3.0764   -0.8066    0.9363 C   0  0  1  0  0  0  0  0  0  0  0  0
    3.9627    0.2215    0.2168 C   0  0  0  0  0  0  0  0  0  0  0  0
    3.6252   -1.1471    2.1851 O   0  0  0  0  0  0  0  0  0  0  0  0
    0.8016    2.7341   -0.5970 H   0  0  0  0  0  0  0  0  0  0  0  0
   -0.2071    3.2326   -1.9903 H   0  0  0  0  0  0  0  0  0  0  0  0
    0.8840    1.8026   -2.1460 H   0  0  0  0  0  0  0  0  0  0  0  0
   -2.3350    2.3269   -2.1929 H   0  0  0  0  0  0  0  0  0  0  0  0
   -3.7440   -1.1410   -0.0691 H   0  0  0  0  0  0  0  0  0  0  0  0
   -3.2619    0.1541    1.0673 H   0  0  0  0  0  0  0  0  0  0  0  0
   -0.3392   -2.1368   -1.2232 H   0  0  0  0  0  0  0  0  0  0  0  0
   -1.4407   -1.0499   -2.1282 H   0  0  0  0  0  0  0  0  0  0  0  0
   -2.0901   -2.4892   -1.2754 H   0  0  0  0  0  0  0  0  0  0  0  0
   -1.5260   -1.2242    2.2469 H   0  0  0  0  0  0  0  0  0  0  0  0
   -0.3779   -2.2286    1.2931 H   0  0  0  0  0  0  0  0  0  0  0  0
   -2.1317   -2.5910    1.2582 H   0  0  0  0  0  0  0  0  0  0  0  0
   -0.1646    1.8359    1.4452 H   0  0  0  0  0  0  0  0  0  0  0  0
    1.2554   -0.3020   -0.9472 H   0  0  0  0  0  0  0  0  0  0  0  0
    1.2901   -0.1304    2.1126 H   0  0  0  0  0  0  0  0  0  0  0  0
    3.0429   -1.7318    0.3205 H   0  0  0  0  0  0  0  0  0  0  0  0
    3.6281    0.3455   -0.8371 H   0  0  0  0  0  0  0  0  0  0  0  0
    5.0185   -0.1264    0.2107 H   0  0  0  0  0  0  0  0  0  0  0  0
    3.9106    1.2083    0.7255 H   0  0  0  0  0  0  0  0  0  0  0  0
    3.7192   -0.3080    2.7112 H   0  0  0  0  0  0  0  0  0  0  0  0
  1  2  1  0
  2  3  2  0
  3  4  1  0
  4  5  2  0
  4  6  1  0
  6  7  1  0
  7  8  1  0
  7  9  1  0
  7 10  1  0
 10 11  1  1
 10 12  1  0
 12 13  2  0
 13 14  1  0
 14 15  1  0
 14 16  1  0
 10  2  1  0
  1 17  1  0
  1 18  1  0
  1 19  1  0
  3 20  1  0
  6 21  1  0
  6 22  1  0
  8 23  1  0
  8 24  1  0
  8 25  1  0
  9 26  1  0
  9 27  1  0
  9 28  1  0
 11 29  1  0
 12 30  1  0
 13 31  1  0
 14 32  1  6
 15 33  1  0
 15 34  1  0
 15 35  1  0
 16 36  1  0
M  END

     RDKit          3D

 36 36  0  0  0  0  0  0  0  0999 V2000
   -0.9578   -2.6461   -0.6456 C   0  0  0  0  0  0  0  0  0  0  0  0
   -1.5252   -1.3338   -0.1584 C   0  0  0  0  0  0  0  0  0  0  0  0
   -2.8468   -1.1141   -0.2801 C   0  0  0  0  0  0  0  0  0  0  0  0
   -3.4507    0.1749    0.0986 C   0  0  0  0  0  0  0  0  0  0  0  0
   -4.7040    0.3001    0.0829 O   0  0  0  0  0  0  0  0  0  0  0  0
   -2.5934    1.3443    0.5050 C   0  0  0  0  0  0  0  0  0  0  0  0
   -1.0979    1.1532    0.0947 C   0  0  0  0  0  0  0  0  0  0  0  0
   -0.2992    2.2683    0.8206 C   0  0  0  0  0  0  0  0  0  0  0  0
   -1.0096    1.3480   -1.4543 C   0  0  0  0  0  0  0  0  0  0  0  0
   -0.6464   -0.2954    0.5647 C   0  0  1  0  0  0  0  0  0  0  0  0
   -0.9303   -0.3850    1.9466 O   0  0  0  0  0  0  0  0  0  0  0  0
    0.8465   -0.6544    0.4176 C   0  0  0  0  0  0  0  0  0  0  0  0
    1.8044   -0.0264   -0.2911 C   0  0  0  0  0  0  0  0  0  0  0  0
    3.2144   -0.5724   -0.3179 C   0  0  2  0  0  0  0  0  0  0  0  0
    4.1870    0.4663   -0.8743 C   0  0  0  0  0  0  0  0  0  0  0  0
    3.2676   -1.7225   -1.1209 O   0  0  0  0  0  0  0  0  0  0  0  0
   -0.5251   -3.2091    0.2061 H   0  0  0  0  0  0  0  0  0  0  0  0
   -0.1677   -2.4562   -1.4001 H   0  0  0  0  0  0  0  0  0  0  0  0
   -1.7278   -3.2876   -1.1227 H   0  0  0  0  0  0  0  0  0  0  0  0
   -3.4916   -1.8720   -0.7102 H   0  0  0  0  0  0  0  0  0  0  0  0
   -2.6885    1.4674    1.6070 H   0  0  0  0  0  0  0  0  0  0  0  0
   -2.9999    2.2711    0.0440 H   0  0  0  0  0  0  0  0  0  0  0  0
   -0.7327    3.2667    0.5945 H   0  0  0  0  0  0  0  0  0  0  0  0
    0.7619    2.3114    0.5259 H   0  0  0  0  0  0  0  0  0  0  0  0
   -0.3377    2.1262    1.9198 H   0  0  0  0  0  0  0  0  0  0  0  0
   -0.1720    0.7967   -1.9202 H   0  0  0  0  0  0  0  0  0  0  0  0
   -1.9185    0.9580   -1.9671 H   0  0  0  0  0  0  0  0  0  0  0  0
   -0.9239    2.4280   -1.7177 H   0  0  0  0  0  0  0  0  0  0  0  0
   -0.8293   -1.3309    2.2343 H   0  0  0  0  0  0  0  0  0  0  0  0
    1.1509   -1.5591    0.9391 H   0  0  0  0  0  0  0  0  0  0  0  0
    1.6194    0.8868   -0.8312 H   0  0  0  0  0  0  0  0  0  0  0  0
    3.5405   -0.8118    0.7204 H   0  0  0  0  0  0  0  0  0  0  0  0
    5.2220    0.0633   -0.8515 H   0  0  0  0  0  0  0  0  0  0  0  0
    4.1587    1.3905   -0.2572 H   0  0  0  0  0  0  0  0  0  0  0  0
    3.9251    0.7214   -1.9236 H   0  0  0  0  0  0  0  0  0  0  0  0
    2.8779   -2.4659   -0.5937 H   0  0  0  0  0  0  0  0  0  0  0  0
  1  2  1  0
  2  3  2  0
  3  4  1  0
  4  5  2  0
  4  6  1  0
  6  7  1  0
  7  8  1  0
  7  9  1  0
  7 10  1  0
 10 11  1  1
 10 12  1  0
 12 13  2  0
 13 14  1  0
 14 15  1  0
 14 16  1  0
 10  2  1  0
  1 17  1  0
  1 18  1  0
  1 19  1  0
  3 20  1  0
  6 21  1  0
  6 22  1  0
  8 23  1  0
  8 24  1  0
  8 25  1  0
  9 26  1  0
  9 27  1  0
  9 28  1  0
 11 29  1  0
 12 30  1  0
 13 31  1  0
 14 32  1  1
 15 33  1  0
 15 34  1  0
 15 35  1  0
 16 36  1  0
M  END

     RDKit          3D

 36 37  0  0  0  0  0  0  0  0999 V2000
    3.8457   -0.3166    3.1103 N   0  0  0  0  0  0  0  0  0  0  0  0
    3.1454   -0.0936    2.2161 C   0  0  0  0  0  0  0  0  0  0  0  0
    2.2546    0.1880    1.0796 C   0  0  2  0  0  0  0  0  0  0  0  0
    1.1465   -0.7046    1.1707 O   0  0  0  0  0  0  0  0  0  0  0  0
    0.1679   -0.5563    0.1488 C   0  0  2  0  0  0  0  0  0  0  0  0
   -0.9806    0.0439    0.7188 O   0  0  0  0  0  0  0  0  0  0  0  0
   -1.8852    0.4498   -0.2975 C   0  0  2  0  0  0  0  0  0  0  0  0
   -3.1171    1.0637    0.3838 C   0  0  0  0  0  0  0  0  0  0  0  0
   -3.9950    1.6065   -0.5667 O   0  0  0  0  0  0  0  0  0  0  0  0
   -2.2844   -0.7418   -1.2324 C   0  0  1  0  0  0  0  0  0  0  0  0
   -1.9015   -0.4916   -2.5636 O   0  0  0  0  0  0  0  0  0  0  0  0
   -1.6983   -2.0812   -0.7348 C   0  0  2  0  0  0  0  0  0  0  0  0
   -2.4101   -2.4814    0.4100 O   0  0  0  0  0  0  0  0  0  0  0  0
   -0.1912   -1.9626   -0.3958 C   0  0  1  0  0  0  0  0  0  0  0  0
    0.5699   -2.2424   -1.5431 O   0  0  0  0  0  0  0  0  0  0  0  0
    3.0403    0.0014   -0.1791 C   0  0  0  0  0  0  0  0  0  0  0  0
    3.1073    1.1127   -0.8942 C   0  0  0  0  0  0  0  0  0  0  0  0
    2.3610    2.2404   -0.2728 C   0  0  0  0  0  0  0  0  0  0  0  0
    1.8629    1.6901    1.0701 C   0  0  0  0  0  0  0  0  0  0  0  0
    0.5367    0.0614   -0.7047 H   0  0  0  0  0  0  0  0  0  0  0  0
   -1.4174    1.2674   -0.8951 H   0  0  0  0  0  0  0  0  0  0  0  0
   -3.6518    0.2807    0.9630 H   0  0  0  0  0  0  0  0  0  0  0  0
   -2.7979    1.8514    1.1044 H   0  0  0  0  0  0  0  0  0  0  0  0
   -3.6107    2.4798   -0.8433 H   0  0  0  0  0  0  0  0  0  0  0  0
   -3.3909   -0.8618   -1.2468 H   0  0  0  0  0  0  0  0  0  0  0  0
   -0.9215   -0.3431   -2.5804 H   0  0  0  0  0  0  0  0  0  0  0  0
   -1.8437   -2.8446   -1.5357 H   0  0  0  0  0  0  0  0  0  0  0  0
   -2.2653   -3.4580    0.5147 H   0  0  0  0  0  0  0  0  0  0  0  0
    0.0405   -2.7314    0.3802 H   0  0  0  0  0  0  0  0  0  0  0  0
    1.4986   -2.4111   -1.2383 H   0  0  0  0  0  0  0  0  0  0  0  0
    3.5062   -0.9315   -0.4813 H   0  0  0  0  0  0  0  0  0  0  0  0
    3.6233    1.1768   -1.8466 H   0  0  0  0  0  0  0  0  0  0  0  0
    3.0335    3.1126   -0.1260 H   0  0  0  0  0  0  0  0  0  0  0  0
    1.5053    2.5247   -0.9231 H   0  0  0  0  0  0  0  0  0  0  0  0
    0.7691    1.8455    1.1738 H   0  0  0  0  0  0  0  0  0  0  0  0
    2.3479    2.2568    1.8975 H   0  0  0  0  0  0  0  0  0  0  0  0
  1  2  3  0
  3  2  1  1
  3  4  1  0
  4  5  1  0
  5  6  1  0
  6  7  1  0
  7  8  1  0
  8  9  1  0
  7 10  1  0
 10 11  1  0
 10 12  1  0
 12 13  1  0
 12 14  1  0
 14 15  1  0
  3 16  1  0
 16 17  2  0
 17 18  1  0
 18 19  1  0
 19  3  1  0
 14  5  1  0
  5 20  1  6
  7 21  1  6
  8 22  1  0
  8 23  1  0
  9 24  1  0
 10 25  1  6
 11 26  1  0
 12 27  1  6
 13 28  1  0
 14 29  1  1
 15 30  1  0
 16 31  1  0
 17 32  1  0
 18 33  1  0
 18 34  1  0
 19 35  1  0
 19 36  1  0
M  END

     RDKit          3D

 37 38  0  0  0  0  0  0  0  0999 V2000
    2.2815    1.2597   -2.1210 N   0  0  0  0  0  0  0  0  0  0  0  0
    2.1532    0.3550   -1.4106 C   0  0  0  0  0  0  0  0  0  0  0  0
    1.9893   -0.7989   -0.4961 C   0  0  2  0  0  0  0  0  0  0  0  0
    1.1464   -0.5152    0.6155 O   0  0  0  0  0  0  0  0  0  0  0  0
   -0.1176    0.0225    0.2524 C   0  0  2  0  0  0  0  0  0  0  0  0
   -0.0491    1.4336    0.3633 O   0  0  0  0  0  0  0  0  0  0  0  0
   -1.2592    2.0356   -0.0656 C   0  0  2  0  0  0  0  0  0  0  0  0
   -1.0640    3.5567   -0.0800 C   0  0  0  0  0  0  0  0  0  0  0  0
   -0.0585    3.8939   -0.9920 O   0  0  0  0  0  0  0  0  0  0  0  0
   -2.4183    1.6383    0.8781 C   0  0  1  0  0  0  0  0  0  0  0  0
   -3.6135    2.2102    0.4156 O   0  0  0  0  0  0  0  0  0  0  0  0
   -2.5415    0.1039    0.9158 C   0  0  2  0  0  0  0  0  0  0  0  0
   -3.4647   -0.2828    1.9015 O   0  0  0  0  0  0  0  0  0  0  0  0
   -1.1727   -0.5243    1.2298 C   0  0  1  0  0  0  0  0  0  0  0  0
   -1.2419   -1.9233    1.1058 O   0  0  0  0  0  0  0  0  0  0  0  0
    3.3369   -1.1507    0.0386 C   0  0  0  0  0  0  0  0  0  0  0  0
    3.6309   -2.4315   -0.1042 C   0  0  0  0  0  0  0  0  0  0  0  0
    2.5361   -3.1820   -0.7751 C   0  0  2  0  0  0  0  0  0  0  0  0
    3.0197   -3.9531   -1.8468 O   0  0  0  0  0  0  0  0  0  0  0  0
    1.5542   -2.0899   -1.2341 C   0  0  0  0  0  0  0  0  0  0  0  0
   -0.4164   -0.2736   -0.7830 H   0  0  0  0  0  0  0  0  0  0  0  0
   -1.5040    1.7225   -1.1083 H   0  0  0  0  0  0  0  0  0  0  0  0
   -0.7826    3.9026    0.9386 H   0  0  0  0  0  0  0  0  0  0  0  0
   -2.0074    4.0643   -0.3774 H   0  0  0  0  0  0  0  0  0  0  0  0
    0.1473    4.8520   -0.8395 H   0  0  0  0  0  0  0  0  0  0  0  0
   -2.1887    2.0110    1.9026 H   0  0  0  0  0  0  0  0  0  0  0  0
   -4.2866    2.0934    1.1387 H   0  0  0  0  0  0  0  0  0  0  0  0
   -2.8678   -0.2556   -0.0903 H   0  0  0  0  0  0  0  0  0  0  0  0
   -4.3416   -0.3848    1.4507 H   0  0  0  0  0  0  0  0  0  0  0  0
   -0.8659   -0.2514    2.2692 H   0  0  0  0  0  0  0  0  0  0  0  0
   -1.7154   -2.2620    1.9097 H   0  0  0  0  0  0  0  0  0  0  0  0
    3.9859   -0.4510    0.5543 H   0  0  0  0  0  0  0  0  0  0  0  0
    4.5401   -2.8853    0.2774 H   0  0  0  0  0  0  0  0  0  0  0  0
    2.0492   -3.8502   -0.0321 H   0  0  0  0  0  0  0  0  0  0  0  0
    3.4886   -3.3451   -2.4817 H   0  0  0  0  0  0  0  0  0  0  0  0
    0.5145   -2.3895   -0.9812 H   0  0  0  0  0  0  0  0  0  0  0  0
    1.6034   -1.9551   -2.3385 H   0  0  0  0  0  0  0  0  0  0  0  0
  1  2  3  0
  3  2  1  6
  3  4  1  0
  4  5  1  0
  5  6  1  0
  6  7  1  0
  7  8  1  0
  8  9  1  0
  7 10  1  0
 10 11  1  0
 10 12  1  0
 12 13  1  0
 12 14  1  0
 14 15  1  0
  3 16  1  0
 16 17  2  0
 17 18  1  0
 18 19  1  0
 18 20  1  0
 20  3  1  0
 14  5  1  0
  5 21  1  6
  7 22  1  6
  8 23  1  0
  8 24  1  0
  9 25  1  0
 10 26  1  1
 11 27  1  0
 12 28  1  6
 13 29  1  0
 14 30  1  1
 15 31  1  0
 16 32  1  0
 17 33  1  0
 18 34  1  1
 19 35  1  0
 20 36  1  0
 20 37  1  0
M  END

     RDKit          3D

 81 85  0  0  0  0  0  0  0  0999 V2000
    6.3128    1.2322   -1.3142 C   0  0  0  0  0  0  0  0  0  0  0  0
    5.1409    0.2280   -1.2366 C   0  0  1  0  0  0  0  0  0  0  0  0
    5.6652   -1.1902   -1.3296 C   0  0  0  0  0  0  0  0  0  0  0  0
    6.4438   -1.4855   -2.2242 O   0  0  0  0  0  0  0  0  0  0  0  0
    5.2809   -2.2380   -0.3247 C   0  0  0  0  0  0  0  0  0  0  0  0
    3.7908   -2.1732    0.0688 C   0  0  0  0  0  0  0  0  0  0  0  0
    3.1093   -0.7700   -0.0777 C   0  0  1  0  0  0  0  0  0  0  0  0
    1.7869   -0.5608    0.7841 C   0  0  2  0  0  0  0  0  0  0  0  0
    2.1438   -0.5479    2.3176 C   0  0  0  0  0  0  0  0  0  0  0  0
    0.7370   -1.7234    0.5877 C   0  0  0  0  0  0  0  0  0  0  0  0
   -0.3522   -1.4882   -0.4723 C   0  0  0  0  0  0  0  0  0  0  0  0
   -1.1488   -0.1108   -0.4258 C   0  0  1  0  0  0  0  0  0  0  0  0
   -1.1853    0.3661   -1.9378 C   0  0  0  0  0  0  0  0  0  0  0  0
   -2.6574   -0.2490    0.0632 C   0  0  2  0  0  0  0  0  0  0  0  0
   -3.4891   -1.2517   -0.8223 C   0  0  0  0  0  0  0  0  0  0  0  0
   -5.0202   -1.2673   -0.5710 C   0  0  0  0  0  0  0  0  0  0  0  0
   -5.6834   -2.1578   -1.6498 C   0  0  0  0  0  0  0  0  0  0  0  0
   -5.3257   -1.9228    0.8000 C   0  0  0  0  0  0  0  0  0  0  0  0
   -5.6244    0.1685   -0.6809 C   0  0  0  0  0  0  0  0  0  0  0  0
   -4.5787    1.2964   -0.7442 C   0  0  0  0  0  0  0  0  0  0  0  0
   -3.4023    1.1596    0.2723 C   0  0  1  0  0  0  0  0  0  0  0  0
   -4.0504    1.2420    1.7000 C   0  0  0  0  0  0  0  0  0  0  0  0
   -2.4840    2.4512    0.0770 C   0  0  0  0  0  0  0  0  0  0  0  0
   -0.9302    2.3503    0.1389 C   0  0  0  0  0  0  0  0  0  0  0  0
   -0.3917    0.9489    0.5120 C   0  0  1  0  0  0  0  0  0  0  0  0
   -0.6371    0.8017    2.0499 C   0  0  0  0  0  0  0  0  0  0  0  0
    1.1596    0.7900    0.2533 C   0  0  1  0  0  0  0  0  0  0  0  0
    2.0818    1.9994    0.5184 C   0  0  0  0  0  0  0  0  0  0  0  0
    3.4111    1.8168   -0.2446 C   0  0  0  0  0  0  0  0  0  0  0  0
    4.1419    0.4428   -0.0269 C   0  0  2  0  0  0  0  0  0  0  0  0
    4.9110    0.5194    1.3295 C   0  0  0  0  0  0  0  0  0  0  0  0
    7.1049    0.9875   -0.5771 H   0  0  0  0  0  0  0  0  0  0  0  0
    5.9716    2.2712   -1.1565 H   0  0  0  0  0  0  0  0  0  0  0  0
    6.7737    1.1890   -2.3203 H   0  0  0  0  0  0  0  0  0  0  0  0
    4.5574    0.3763   -2.1750 H   0  0  0  0  0  0  0  0  0  0  0  0
    5.4941   -3.2470   -0.7465 H   0  0  0  0  0  0  0  0  0  0  0  0
    5.9353   -2.1349    0.5654 H   0  0  0  0  0  0  0  0  0  0  0  0
    3.2563   -2.8919   -0.5922 H   0  0  0  0  0  0  0  0  0  0  0  0
    3.6999   -2.5872    1.0914 H   0  0  0  0  0  0  0  0  0  0  0  0
    2.7520   -0.7938   -1.1343 H   0  0  0  0  0  0  0  0  0  0  0  0
    1.3114   -0.8749    2.9694 H   0  0  0  0  0  0  0  0  0  0  0  0
    2.4176    0.4363    2.7156 H   0  0  0  0  0  0  0  0  0  0  0  0
    2.9751   -1.2317    2.5683 H   0  0  0  0  0  0  0  0  0  0  0  0
    0.1854   -1.9585    1.5230 H   0  0  0  0  0  0  0  0  0  0  0  0
    1.2430   -2.6809    0.3532 H   0  0  0  0  0  0  0  0  0  0  0  0
   -1.0308   -2.3552   -0.4204 H   0  0  0  0  0  0  0  0  0  0  0  0
    0.1771   -1.6116   -1.4460 H   0  0  0  0  0  0  0  0  0  0  0  0
   -0.2261    0.7698   -2.3107 H   0  0  0  0  0  0  0  0  0  0  0  0
   -1.4148   -0.4749   -2.6279 H   0  0  0  0  0  0  0  0  0  0  0  0
   -1.9434    1.1387   -2.1388 H   0  0  0  0  0  0  0  0  0  0  0  0
   -2.6017   -0.7575    1.0473 H   0  0  0  0  0  0  0  0  0  0  0  0
   -3.3596   -1.0153   -1.8968 H   0  0  0  0  0  0  0  0  0  0  0  0
   -3.1248   -2.2892   -0.6821 H   0  0  0  0  0  0  0  0  0  0  0  0
   -6.7843   -2.2058   -1.4960 H   0  0  0  0  0  0  0  0  0  0  0  0
   -5.2799   -3.1969   -1.6145 H   0  0  0  0  0  0  0  0  0  0  0  0
   -5.4928   -1.7550   -2.6713 H   0  0  0  0  0  0  0  0  0  0  0  0
   -6.3984   -1.8022    1.0680 H   0  0  0  0  0  0  0  0  0  0  0  0
   -4.7081   -1.5118    1.6177 H   0  0  0  0  0  0  0  0  0  0  0  0
   -5.1102   -3.0146    0.7719 H   0  0  0  0  0  0  0  0  0  0  0  0
   -6.3465    0.3693    0.1412 H   0  0  0  0  0  0  0  0  0  0  0  0
   -6.2429    0.2698   -1.5969 H   0  0  0  0  0  0  0  0  0  0  0  0
   -5.1043    2.2653   -0.5878 H   0  0  0  0  0  0  0  0  0  0  0  0
   -4.1807    1.3269   -1.7823 H   0  0  0  0  0  0  0  0  0  0  0  0
   -4.9583    0.6329    1.8113 H   0  0  0  0  0  0  0  0  0  0  0  0
   -4.3859    2.2708    1.9429 H   0  0  0  0  0  0  0  0  0  0  0  0
   -3.3990    0.8846    2.5089 H   0  0  0  0  0  0  0  0  0  0  0  0
   -2.7105    2.9263   -0.9044 H   0  0  0  0  0  0  0  0  0  0  0  0
   -2.7832    3.2491    0.7910 H   0  0  0  0  0  0  0  0  0  0  0  0
   -0.5120    2.6623   -0.8383 H   0  0  0  0  0  0  0  0  0  0  0  0
   -0.5568    3.1036    0.8665 H   0  0  0  0  0  0  0  0  0  0  0  0
    0.2278    1.1753    2.6268 H   0  0  0  0  0  0  0  0  0  0  0  0
   -0.8740   -0.2310    2.3679 H   0  0  0  0  0  0  0  0  0  0  0  0
   -1.4231    1.4723    2.4242 H   0  0  0  0  0  0  0  0  0  0  0  0
    1.2164    0.7243   -0.8465 H   0  0  0  0  0  0  0  0  0  0  0  0
    1.6259    2.9276    0.1136 H   0  0  0  0  0  0  0  0  0  0  0  0
    2.2493    2.1998    1.5930 H   0  0  0  0  0  0  0  0  0  0  0  0
    4.0813    2.6589    0.0424 H   0  0  0  0  0  0  0  0  0  0  0  0
    3.1869    1.9556   -1.3272 H   0  0  0  0  0  0  0  0  0  0  0  0
    5.1433   -0.4733    1.7597 H   0  0  0  0  0  0  0  0  0  0  0  0
    4.3510    1.0923    2.0908 H   0  0  0  0  0  0  0  0  0  0  0  0
    5.8598    1.0830    1.2445 H   0  0  0  0  0  0  0  0  0  0  0  0
  1  2  1  0
  2  3  1  0
  3  4  2  0
  3  5  1  0
  5  6  1  0
  6  7  1  0
  7  8  1  0
  8  9  1  1
  8 10  1  0
 10 11  1  0
 11 12  1  0
 12 13  1  6
 12 14  1  0
 14 15  1  0
 15 16  1  0
 16 17  1  0
 16 18  1  0
 16 19  1  0
 19 20  1  0
 20 21  1  0
 21 22  1  1
 21 23  1  0
 23 24  1  0
 24 25  1  0
 25 26  1  1
 25 27  1  0
 27 28  1  0
 28 29  1  0
 29 30  1  0
 30 31  1  1
 30  2  1  0
 30  7  1  0
 27  8  1  0
 25 12  1  0
 21 14  1  0
  1 32  1  0
  1 33  1  0
  1 34  1  0
  2 35  1  6
  5 36  1  0
  5 37  1  0
  6 38  1  0
  6 39  1  0
  7 40  1  6
  9 41  1  0
  9 42  1  0
  9 43  1  0
 10 44  1  0
 10 45  1  0
 11 46  1  0
 11 47  1  0
 13 48  1  0
 13 49  1  0
 13 50  1  0
 14 51  1  1
 15 52  1  0
 15 53  1  0
 17 54  1  0
 17 55  1  0
 17 56  1  0
 18 57  1  0
 18 58  1  0
 18 59  1  0
 19 60  1  0
 19 61  1  0
 20 62  1  0
 20 63  1  0
 22 64  1  0
 22 65  1  0
 22 66  1  0
 23 67  1  0
 23 68  1  0
 24 69  1  0
 24 70  1  0
 26 71  1  0
 26 72  1  0
 26 73  1  0
 27 74  1  6
 28 75  1  0
 28 76  1  0
 29 77  1  0
 29 78  1  0
 31 79  1  0
 31 80  1  0
 31 81  1  0
M  END

     RDKit          3D

 74 78  0  0  0  0  0  0  0  0999 V2000
   -7.4868   -1.1364   -2.0844 C   0  0  0  0  0  0  0  0  0  0  0  0
   -6.5974   -0.5104   -1.1631 O   0  0  0  0  0  0  0  0  0  0  0  0
   -5.2118   -0.7069   -1.2033 C   0  0  0  0  0  0  0  0  0  0  0  0
   -4.7064   -1.4372   -2.1015 O   0  0  0  0  0  0  0  0  0  0  0  0
   -4.3367   -0.0534   -0.1369 C   0  0  2  0  0  0  0  0  0  0  0  0
   -4.8278   -0.6183    1.2202 C   0  0  0  0  0  0  0  0  0  0  0  0
   -4.5318    1.4949   -0.2173 C   0  0  0  0  0  0  0  0  0  0  0  0
   -3.2228    2.2940   -0.3735 C   0  0  0  0  0  0  0  0  0  0  0  0
   -2.1244    1.8873    0.6477 C   0  0  2  0  0  0  0  0  0  0  0  0
   -2.6321    2.2932    2.0634 C   0  0  0  0  0  0  0  0  0  0  0  0
   -0.8668    2.7617    0.3500 C   0  0  0  0  0  0  0  0  0  0  0  0
    0.3791    2.3259    1.1251 C   0  0  0  0  0  0  0  0  0  0  0  0
    0.7166    0.7707    1.0718 C   0  0  2  0  0  0  0  0  0  0  0  0
    0.6269    0.3466    2.5811 C   0  0  0  0  0  0  0  0  0  0  0  0
    2.1521    0.3917    0.5623 C   0  0  0  0  0  0  0  0  0  0  0  0
    2.9062    1.2754   -0.1356 C   0  0  0  0  0  0  0  0  0  0  0  0
    4.2053    0.9587   -0.7290 C   0  0  0  0  0  0  0  0  0  0  0  0
    4.6728   -0.2858   -0.7973 C   0  0  0  0  0  0  0  0  0  0  0  0
    3.8217   -1.3913   -0.2844 C   0  0  0  0  0  0  0  0  0  0  0  0
    4.1995   -2.6627   -0.5424 C   0  0  0  0  0  0  0  0  0  0  0  0
    5.3802   -2.9571   -1.3609 C   0  0  0  0  0  0  0  0  0  0  0  0
    5.6505   -4.1516   -1.6553 O   0  0  0  0  0  0  0  0  0  0  0  0
    6.2680   -1.8715   -1.8020 C   0  0  0  0  0  0  0  0  0  0  0  0
    7.3802   -2.2201   -2.5721 O   0  0  0  0  0  0  0  0  0  0  0  0
    5.9879   -0.5944   -1.4590 C   0  0  0  0  0  0  0  0  0  0  0  0
    6.9834    0.5104   -1.7494 C   0  0  0  0  0  0  0  0  0  0  0  0
    2.5975   -1.1023    0.6208 C   0  0  1  0  0  0  0  0  0  0  0  0
    3.0458   -1.4939    2.0647 C   0  0  0  0  0  0  0  0  0  0  0  0
    1.4125   -2.0087    0.1105 C   0  0  0  0  0  0  0  0  0  0  0  0
   -0.0408   -1.5666    0.4080 C   0  0  0  0  0  0  0  0  0  0  0  0
   -0.3159   -0.0419    0.1709 C   0  0  2  0  0  0  0  0  0  0  0  0
   -0.0895    0.1963   -1.3717 C   0  0  0  0  0  0  0  0  0  0  0  0
   -1.8181    0.3231    0.5561 C   0  0  2  0  0  0  0  0  0  0  0  0
   -2.8488   -0.4406   -0.3512 C   0  0  0  0  0  0  0  0  0  0  0  0
   -7.3996   -2.2416   -1.9954 H   0  0  0  0  0  0  0  0  0  0  0  0
   -8.5297   -0.8366   -1.8390 H   0  0  0  0  0  0  0  0  0  0  0  0
   -7.2469   -0.8215   -3.1197 H   0  0  0  0  0  0  0  0  0  0  0  0
   -5.8960   -0.3618    1.3934 H   0  0  0  0  0  0  0  0  0  0  0  0
   -4.2470   -0.2385    2.0761 H   0  0  0  0  0  0  0  0  0  0  0  0
   -4.7426   -1.7288    1.2345 H   0  0  0  0  0  0  0  0  0  0  0  0
   -5.0938    1.8723    0.6627 H   0  0  0  0  0  0  0  0  0  0  0  0
   -5.1712    1.7669   -1.0869 H   0  0  0  0  0  0  0  0  0  0  0  0
   -2.8458    2.1503   -1.4096 H   0  0  0  0  0  0  0  0  0  0  0  0
   -3.4603    3.3785   -0.2766 H   0  0  0  0  0  0  0  0  0  0  0  0
   -1.9021    2.0743    2.8622 H   0  0  0  0  0  0  0  0  0  0  0  0
   -2.8383    3.3849    2.1124 H   0  0  0  0  0  0  0  0  0  0  0  0
   -3.5744    1.7870    2.3449 H   0  0  0  0  0  0  0  0  0  0  0  0
   -0.6277    2.8288   -0.7247 H   0  0  0  0  0  0  0  0  0  0  0  0
   -1.0796    3.8228    0.6197 H   0  0  0  0  0  0  0  0  0  0  0  0
    0.2083    2.6728    2.1688 H   0  0  0  0  0  0  0  0  0  0  0  0
    1.2034    3.0073    0.8681 H   0  0  0  0  0  0  0  0  0  0  0  0
    0.7229   -0.7216    2.7909 H   0  0  0  0  0  0  0  0  0  0  0  0
    1.4098    0.8638    3.1744 H   0  0  0  0  0  0  0  0  0  0  0  0
   -0.3460    0.6016    3.0326 H   0  0  0  0  0  0  0  0  0  0  0  0
    2.5681    2.2611   -0.3943 H   0  0  0  0  0  0  0  0  0  0  0  0
    4.7396    1.7801   -1.1808 H   0  0  0  0  0  0  0  0  0  0  0  0
    3.6442   -3.5034   -0.1426 H   0  0  0  0  0  0  0  0  0  0  0  0
    7.9474   -1.5474   -3.0738 H   0  0  0  0  0  0  0  0  0  0  0  0
    6.9033    1.3268   -1.0014 H   0  0  0  0  0  0  0  0  0  0  0  0
    6.8179    0.9149   -2.7693 H   0  0  0  0  0  0  0  0  0  0  0  0
    8.0275    0.1473   -1.6589 H   0  0  0  0  0  0  0  0  0  0  0  0
    3.9818   -2.0959    2.0826 H   0  0  0  0  0  0  0  0  0  0  0  0
    3.2651   -0.5935    2.6725 H   0  0  0  0  0  0  0  0  0  0  0  0
    2.2997   -2.1258    2.5781 H   0  0  0  0  0  0  0  0  0  0  0  0
    1.5278   -3.0428    0.4999 H   0  0  0  0  0  0  0  0  0  0  0  0
    1.4880   -2.0958   -1.0004 H   0  0  0  0  0  0  0  0  0  0  0  0
   -0.6780   -2.1826   -0.2587 H   0  0  0  0  0  0  0  0  0  0  0  0
   -0.3478   -1.8981    1.4157 H   0  0  0  0  0  0  0  0  0  0  0  0
   -0.4492   -0.6711   -1.9696 H   0  0  0  0  0  0  0  0  0  0  0  0
    0.9717    0.3132   -1.6627 H   0  0  0  0  0  0  0  0  0  0  0  0
   -0.6490    1.0507   -1.7825 H   0  0  0  0  0  0  0  0  0  0  0  0
   -1.9681   -0.0990    1.5720 H   0  0  0  0  0  0  0  0  0  0  0  0
   -2.6109   -0.2416   -1.4135 H   0  0  0  0  0  0  0  0  0  0  0  0
   -2.7505   -1.5364   -0.1958 H   0  0  0  0  0  0  0  0  0  0  0  0
  1  2  1  0
  2  3  1  0
  3  4  2  0
  3  5  1  0
  5  6  1  1
  5  7  1  0
  7  8  1  0
  8  9  1  0
  9 10  1  1
  9 11  1  0
 11 12  1  0
 12 13  1  0
 13 14  1  1
 13 15  1  0
 15 16  2  0
 16 17  1  0
 17 18  2  0
 18 19  1  0
 19 20  2  0
 20 21  1  0
 21 22  2  0
 21 23  1  0
 23 24  1  0
 23 25  2  0
 25 26  1  0
 19 27  1  0
 27 28  1  1
 27 29  1  0
 29 30  1  0
 30 31  1  0
 31 32  1  6
 31 33  1  0
 33 34  1  0
 34  5  1  0
 33  9  1  0
 31 13  1  0
 27 15  1  0
 25 18  1  0
  1 35  1  0
  1 36  1  0
  1 37  1  0
  6 38  1  0
  6 39  1  0
  6 40  1  0
  7 41  1  0
  7 42  1  0
  8 43  1  0
  8 44  1  0
 10 45  1  0
 10 46  1  0
 10 47  1  0
 11 48  1  0
 11 49  1  0
 12 50  1  0
 12 51  1  0
 14 52  1  0
 14 53  1  0
 14 54  1  0
 16 55  1  0
 17 56  1  0
 20 57  1  0
 24 58  1  0
 26 59  1  0
 26 60  1  0
 26 61  1  0
 28 62  1  0
 28 63  1  0
 28 64  1  0
 29 65  1  0
 29 66  1  0
 30 67  1  0
 30 68  1  0
 32 69  1  0
 32 70  1  0
 32 71  1  0
 33 72  1  1
 34 73  1  0
 34 74  1  0
M  END

     RDKit          3D

 38 39  0  0  0  0  0  0  0  0999 V2000
    4.0891   -0.1122   -0.6179 C   0  0  0  0  0  0  0  0  0  0  0  0
    3.0338   -0.1584    0.2109 C   0  0  0  0  0  0  0  0  0  0  0  0
    3.2438   -0.6881    1.6080 C   0  0  0  0  0  0  0  0  0  0  0  0
    1.6670    0.3105   -0.2736 C   0  0  2  0  0  0  0  0  0  0  0  0
    1.0934    1.4584    0.5438 C   0  0  0  0  0  0  0  0  0  0  0  0
   -0.4134    1.4067    0.3170 C   0  0  0  0  0  0  0  0  0  0  0  0
   -0.7685   -0.0491   -0.1034 C   0  0  1  0  0  0  0  0  0  0  0  0
    0.5991   -0.7831   -0.2499 C   0  0  0  0  0  0  0  0  0  0  0  0
   -1.6262   -0.6839    1.0173 C   0  0  0  0  0  0  0  0  0  0  0  0
   -1.0295   -1.0250    2.3625 C   0  0  0  0  0  0  0  0  0  0  0  0
   -2.9651   -0.7765    0.9113 C   0  0  0  0  0  0  0  0  0  0  0  0
   -3.6963   -0.2674   -0.2555 C   0  0  0  0  0  0  0  0  0  0  0  0
   -4.9498   -0.3807   -0.3053 O   0  0  0  0  0  0  0  0  0  0  0  0
   -2.9690    0.4443   -1.3490 C   0  0  0  0  0  0  0  0  0  0  0  0
   -1.5465   -0.1202   -1.4785 C   0  0  1  0  0  0  0  0  0  0  0  0
   -0.8343    0.5242   -2.6878 C   0  0  0  0  0  0  0  0  0  0  0  0
    5.0693   -0.4449   -0.2888 H   0  0  0  0  0  0  0  0  0  0  0  0
    3.9935    0.2565   -1.6345 H   0  0  0  0  0  0  0  0  0  0  0  0
    3.6178   -1.7327    1.5606 H   0  0  0  0  0  0  0  0  0  0  0  0
    3.9889   -0.0591    2.1393 H   0  0  0  0  0  0  0  0  0  0  0  0
    2.3075   -0.6854    2.1975 H   0  0  0  0  0  0  0  0  0  0  0  0
    1.7509    0.6764   -1.3215 H   0  0  0  0  0  0  0  0  0  0  0  0
    1.5162    2.4329    0.2146 H   0  0  0  0  0  0  0  0  0  0  0  0
    1.3039    1.3308    1.6269 H   0  0  0  0  0  0  0  0  0  0  0  0
   -0.6880    2.1523   -0.4537 H   0  0  0  0  0  0  0  0  0  0  0  0
   -0.9402    1.7249    1.2445 H   0  0  0  0  0  0  0  0  0  0  0  0
    0.6653   -1.4001   -1.1718 H   0  0  0  0  0  0  0  0  0  0  0  0
    0.7884   -1.4969    0.5757 H   0  0  0  0  0  0  0  0  0  0  0  0
   -0.9763   -2.1276    2.4790 H   0  0  0  0  0  0  0  0  0  0  0  0
   -1.6514   -0.6035    3.1816 H   0  0  0  0  0  0  0  0  0  0  0  0
   -0.0183   -0.5938    2.4846 H   0  0  0  0  0  0  0  0  0  0  0  0
   -3.5448   -1.1967    1.7261 H   0  0  0  0  0  0  0  0  0  0  0  0
   -2.9411    1.5308   -1.1198 H   0  0  0  0  0  0  0  0  0  0  0  0
   -3.5203    0.3025   -2.3047 H   0  0  0  0  0  0  0  0  0  0  0  0
   -1.6585   -1.1994   -1.7359 H   0  0  0  0  0  0  0  0  0  0  0  0
   -0.6978    1.6165   -2.5668 H   0  0  0  0  0  0  0  0  0  0  0  0
   -1.4415    0.3652   -3.6045 H   0  0  0  0  0  0  0  0  0  0  0  0
    0.1488    0.0519   -2.8782 H   0  0  0  0  0  0  0  0  0  0  0  0
  1  2  2  3
  2  3  1  0
  2  4  1  0
  4  5  1  0
  5  6  1  0
  7  6  1  1
  7  8  1  0
  7  9  1  0
  9 10  1  0
  9 11  2  0
 11 12  1  0
 12 13  2  0
 12 14  1  0
 14 15  1  0
 15 16  1  0
  8  4  1  0
 15  7  1  0
  1 17  1  0
  1 18  1  0
  3 19  1  0
  3 20  1  0
  3 21  1  0
  4 22  1  6
  5 23  1  0
  5 24  1  0
  6 25  1  0
  6 26  1  0
  8 27  1  0
  8 28  1  0
 10 29  1  0
 10 30  1  0
 10 31  1  0
 11 32  1  0
 14 33  1  0
 14 34  1  0
 15 35  1  6
 16 36  1  0
 16 37  1  0
 16 38  1  0
M  END

     RDKit          3D

 26 27  0  0  0  0  0  0  0  0999 V2000
    3.3295   -0.1058   -0.3200 C   0  0  0  0  0  0  0  0  0  0  0  0
    1.8157    0.0328   -0.5275 C   0  0  2  0  0  0  0  0  0  0  0  0
    1.3698    1.4915   -0.3387 C   0  0  0  0  0  0  0  0  0  0  0  0
   -0.1192    1.6294   -0.4840 C   0  0  0  0  0  0  0  0  0  0  0  0
   -0.5839    2.7453   -0.8411 O   0  0  0  0  0  0  0  0  0  0  0  0
   -1.0276    0.4930   -0.1622 C   0  0  0  0  0  0  0  0  0  0  0  0
   -2.4345    0.6175   -0.2591 C   0  0  0  0  0  0  0  0  0  0  0  0
   -3.0195    1.8190   -0.6599 O   0  0  0  0  0  0  0  0  0  0  0  0
   -3.2573   -0.4741    0.0505 C   0  0  0  0  0  0  0  0  0  0  0  0
   -2.7015   -1.6850    0.4577 C   0  0  0  0  0  0  0  0  0  0  0  0
   -1.3183   -1.8213    0.5558 C   0  0  0  0  0  0  0  0  0  0  0  0
   -0.4719   -0.7483    0.2358 C   0  0  0  0  0  0  0  0  0  0  0  0
    1.0258   -0.9236    0.3972 C   0  0  2  0  0  0  0  0  0  0  0  0
    1.3981   -0.7725    1.7464 O   0  0  0  0  0  0  0  0  0  0  0  0
    3.6200    0.2102    0.7047 H   0  0  0  0  0  0  0  0  0  0  0  0
    3.6416   -1.1608   -0.4733 H   0  0  0  0  0  0  0  0  0  0  0  0
    3.8735    0.5263   -1.0539 H   0  0  0  0  0  0  0  0  0  0  0  0
    1.5990   -0.2563   -1.5814 H   0  0  0  0  0  0  0  0  0  0  0  0
    1.6691    1.8672    0.6631 H   0  0  0  0  0  0  0  0  0  0  0  0
    1.8704    2.1267   -1.1023 H   0  0  0  0  0  0  0  0  0  0  0  0
   -4.0247    1.9242   -0.7339 H   0  0  0  0  0  0  0  0  0  0  0  0
   -4.3337   -0.3823   -0.0213 H   0  0  0  0  0  0  0  0  0  0  0  0
   -3.3454   -2.5202    0.7015 H   0  0  0  0  0  0  0  0  0  0  0  0
   -0.9038   -2.7668    0.8836 H   0  0  0  0  0  0  0  0  0  0  0  0
    1.2880   -1.9613    0.0929 H   0  0  0  0  0  0  0  0  0  0  0  0
    1.0407    0.0952    2.0693 H   0  0  0  0  0  0  0  0  0  0  0  0
  1  2  1  0
  2  3  1  0
  3  4  1  0
  4  5  2  0
  4  6  1  0
  6  7  2  0
  7  8  1  0
  7  9  1  0
  9 10  2  0
 10 11  1  0
 11 12  2  0
 12 13  1  0
 13 14  1  0
 13  2  1  0
 12  6  1  0
  1 15  1  0
  1 16  1  0
  1 17  1  0
  2 18  1  6
  3 19  1  0
  3 20  1  0
  8 21  1  0
  9 22  1  0
 10 23  1  0
 11 24  1  0
 13 25  1  6
 14 26  1  0
M  END

     RDKit          3D

 30 32  0  0  0  0  0  0  0  0999 V2000
   -4.6596   -0.5950   -0.6302 C   0  0  0  0  0  0  0  0  0  0  0  0
   -3.2877   -0.1058   -0.2711 C   0  0  0  0  0  0  0  0  0  0  0  0
   -3.0777    1.2382    0.0576 C   0  0  0  0  0  0  0  0  0  0  0  0
   -1.7928    1.7051    0.3634 C   0  0  0  0  0  0  0  0  0  0  0  0
   -1.6111    3.0500    0.6866 O   0  0  0  0  0  0  0  0  0  0  0  0
   -0.6934    0.8190    0.3310 C   0  0  0  0  0  0  0  0  0  0  0  0
   -0.8983   -0.5274   -0.0306 C   0  0  0  0  0  0  0  0  0  0  0  0
   -2.1957   -0.9796   -0.3296 C   0  0  0  0  0  0  0  0  0  0  0  0
    0.2525   -1.4580   -0.0891 C   0  0  0  0  0  0  0  0  0  0  0  0
    0.0424   -2.6926   -0.2391 O   0  0  0  0  0  0  0  0  0  0  0  0
    1.6440   -0.9369    0.0161 C   0  0  0  0  0  0  0  0  0  0  0  0
    2.7594   -1.7811   -0.1966 C   0  0  0  0  0  0  0  0  0  0  0  0
    2.5879   -3.1332   -0.4957 O   0  0  0  0  0  0  0  0  0  0  0  0
    4.0543   -1.2633   -0.1105 C   0  0  0  0  0  0  0  0  0  0  0  0
    4.2574    0.0888    0.1414 C   0  0  0  0  0  0  0  0  0  0  0  0
    3.1751    0.9503    0.3252 C   0  0  0  0  0  0  0  0  0  0  0  0
    3.4597    2.3107    0.4657 O   0  0  0  0  0  0  0  0  0  0  0  0
    1.8518    0.4324    0.3241 C   0  0  0  0  0  0  0  0  0  0  0  0
    0.6742    1.2659    0.6906 C   0  0  0  0  0  0  0  0  0  0  0  0
    0.8233    2.3003    1.3944 O   0  0  0  0  0  0  0  0  0  0  0  0
   -4.7635   -0.6228   -1.7347 H   0  0  0  0  0  0  0  0  0  0  0  0
   -4.8227   -1.6161   -0.2239 H   0  0  0  0  0  0  0  0  0  0  0  0
   -5.4433    0.0709   -0.2096 H   0  0  0  0  0  0  0  0  0  0  0  0
   -3.9138    1.9265    0.0765 H   0  0  0  0  0  0  0  0  0  0  0  0
   -2.3865    3.7015    0.7104 H   0  0  0  0  0  0  0  0  0  0  0  0
   -2.3612   -2.0119   -0.6143 H   0  0  0  0  0  0  0  0  0  0  0  0
    3.3767   -3.7500   -0.6527 H   0  0  0  0  0  0  0  0  0  0  0  0
    4.9098   -1.9083   -0.2662 H   0  0  0  0  0  0  0  0  0  0  0  0
    5.2665    0.4796    0.1599 H   0  0  0  0  0  0  0  0  0  0  0  0
    2.7726    3.0427    0.3511 H   0  0  0  0  0  0  0  0  0  0  0  0
  1  2  1  0
  2  3  2  0
  3  4  1  0
  4  5  1  0
  4  6  2  0
  6  7  1  0
  7  8  2  0
  7  9  1  0
  9 10  2  0
  9 11  1  0
 11 12  2  0
 12 13  1  0
 12 14  1  0
 14 15  2  0
 15 16  1  0
 16 17  1  0
 16 18  2  0
 18 19  1  0
 19 20  2  0
  8  2  1  0
 18 11  1  0
 19  6  1  0
  1 21  1  0
  1 22  1  0
  1 23  1  0
  3 24  1  0
  5 25  1  0
  8 26  1  0
 13 27  1  0
 14 28  1  0
 15 29  1  0
 17 30  1  0
M  END

     RDKit          3D

 33 35  0  0  0  0  0  0  0  0999 V2000
    3.8460    1.8250    1.1667 C   0  0  0  0  0  0  0  0  0  0  0  0
    2.5091    1.8530    1.0908 C   0  0  0  0  0  0  0  0  0  0  0  0
    1.7419    2.9490    1.7777 C   0  0  0  0  0  0  0  0  0  0  0  0
    1.7830    0.8253    0.2665 C   0  0  1  0  0  0  0  0  0  0  0  0
    2.0262   -0.4793    0.7397 O   0  0  0  0  0  0  0  0  0  0  0  0
    0.7376    0.0417    0.9749 C   0  0  2  0  0  0  0  0  0  0  0  0
   -0.3013   -0.5970    0.0919 C   0  0  0  0  0  0  0  0  0  0  0  0
   -0.4451   -1.9999    0.0584 C   0  0  0  0  0  0  0  0  0  0  0  0
    0.4114   -2.7889    0.8444 O   0  0  0  0  0  0  0  0  0  0  0  0
    0.3770   -4.2097    0.9016 C   0  0  0  0  0  0  0  0  0  0  0  0
   -1.4419   -2.5748   -0.7551 C   0  0  0  0  0  0  0  0  0  0  0  0
   -2.2953   -1.7704   -1.5118 C   0  0  0  0  0  0  0  0  0  0  0  0
   -2.1734   -0.3780   -1.4597 C   0  0  0  0  0  0  0  0  0  0  0  0
   -3.0247    0.4550   -2.1924 C   0  0  0  0  0  0  0  0  0  0  0  0
   -2.8760    1.8383   -2.1023 C   0  0  0  0  0  0  0  0  0  0  0  0
   -1.8739    2.3579   -1.2786 C   0  0  0  0  0  0  0  0  0  0  0  0
   -1.7228    3.6045   -1.1817 O   0  0  0  0  0  0  0  0  0  0  0  0
   -1.0759    1.5429   -0.5946 O   0  0  0  0  0  0  0  0  0  0  0  0
   -1.1794    0.2149   -0.6510 C   0  0  0  0  0  0  0  0  0  0  0  0
    4.4159    1.0540    0.6558 H   0  0  0  0  0  0  0  0  0  0  0  0
    4.3864    2.5734    1.7389 H   0  0  0  0  0  0  0  0  0  0  0  0
    2.0926    3.9390    1.4172 H   0  0  0  0  0  0  0  0  0  0  0  0
    0.6556    2.8653    1.5650 H   0  0  0  0  0  0  0  0  0  0  0  0
    1.8947    2.8835    2.8754 H   0  0  0  0  0  0  0  0  0  0  0  0
    1.8101    0.8625   -0.8436 H   0  0  0  0  0  0  0  0  0  0  0  0
    0.5463    0.2100    2.0562 H   0  0  0  0  0  0  0  0  0  0  0  0
    0.5689   -4.6361   -0.1045 H   0  0  0  0  0  0  0  0  0  0  0  0
    1.1691   -4.5632    1.5930 H   0  0  0  0  0  0  0  0  0  0  0  0
   -0.6066   -4.5519    1.2832 H   0  0  0  0  0  0  0  0  0  0  0  0
   -1.5695   -3.6471   -0.8065 H   0  0  0  0  0  0  0  0  0  0  0  0
   -3.0569   -2.2347   -2.1262 H   0  0  0  0  0  0  0  0  0  0  0  0
   -3.7986    0.0404   -2.8271 H   0  0  0  0  0  0  0  0  0  0  0  0
   -3.5306    2.4952   -2.6619 H   0  0  0  0  0  0  0  0  0  0  0  0
  1  2  2  3
  2  3  1  0
  2  4  1  0
  4  5  1  0
  5  6  1  0
  6  7  1  0
  7  8  2  0
  8  9  1  0
  9 10  1  0
  8 11  1  0
 11 12  2  0
 12 13  1  0
 13 14  1  0
 14 15  2  0
 15 16  1  0
 16 17  2  0
 16 18  1  0
 18 19  1  0
  6  4  1  0
 19  7  1  0
 19 13  2  0
  1 20  1  0
  1 21  1  0
  3 22  1  0
  3 23  1  0
  3 24  1  0
  4 25  1  6
  6 26  1  1
 10 27  1  0
 10 28  1  0
 10 29  1  0
 11 30  1  0
 12 31  1  0
 14 32  1  0
 15 33  1  0
M  END

     RDKit          3D

 34 36  0  0  0  0  0  0  0  0999 V2000
    4.0229   -0.9116    0.0730 C   0  0  0  0  0  0  0  0  0  0  0  0
    2.7070   -1.1211    0.0734 C   0  0  0  0  0  0  0  0  0  0  0  0
    2.0478   -2.4053    0.2125 C   0  0  0  0  0  0  0  0  0  0  0  0
    2.6230   -3.5169    0.3503 O   0  0  0  0  0  0  0  0  0  0  0  0
    0.6763   -2.2551    0.1283 O   0  0  0  0  0  0  0  0  0  0  0  0
    0.3571   -0.8681    0.1821 C   0  0  1  0  0  0  0  0  0  0  0  0
    1.6325   -0.1514   -0.3131 C   0  0  1  0  0  0  0  0  0  0  0  0
    1.7309    1.2751    0.2450 C   0  0  0  0  0  0  0  0  0  0  0  0
    0.6857    2.1879   -0.4308 C   0  0  0  0  0  0  0  0  0  0  0  0
   -0.7279    2.0123    0.1050 C   0  0  0  0  0  0  0  0  0  0  0  0
   -1.3686    3.1877    0.8018 C   0  0  0  0  0  0  0  0  0  0  0  0
   -1.4191    0.8535   -0.0666 C   0  0  0  0  0  0  0  0  0  0  0  0
   -2.7791    0.5635    0.3943 C   0  0  0  0  0  0  0  0  0  0  0  0
   -3.5799    1.3732    0.9316 O   0  0  0  0  0  0  0  0  0  0  0  0
   -3.0863   -0.8199    0.1215 C   0  0  0  0  0  0  0  0  0  0  0  0
   -2.0403   -1.3923   -0.4605 C   0  0  0  0  0  0  0  0  0  0  0  0
   -2.0757   -2.7948   -0.9846 C   0  0  0  0  0  0  0  0  0  0  0  0
   -0.8761   -0.4429   -0.6355 C   0  0  2  0  0  0  0  0  0  0  0  0
    4.4298    0.0662   -0.1449 H   0  0  0  0  0  0  0  0  0  0  0  0
    4.7085   -1.7218    0.2854 H   0  0  0  0  0  0  0  0  0  0  0  0
    0.1862   -0.6300    1.2595 H   0  0  0  0  0  0  0  0  0  0  0  0
    1.6470   -0.1109   -1.4264 H   0  0  0  0  0  0  0  0  0  0  0  0
    2.7371    1.6838    0.0135 H   0  0  0  0  0  0  0  0  0  0  0  0
    1.6087    1.2875    1.3503 H   0  0  0  0  0  0  0  0  0  0  0  0
    1.0219    3.2370   -0.2883 H   0  0  0  0  0  0  0  0  0  0  0  0
    0.6804    2.0268   -1.5309 H   0  0  0  0  0  0  0  0  0  0  0  0
   -0.6805    4.0548    0.8778 H   0  0  0  0  0  0  0  0  0  0  0  0
   -2.2659    3.5193    0.2381 H   0  0  0  0  0  0  0  0  0  0  0  0
   -1.6563    2.9026    1.8356 H   0  0  0  0  0  0  0  0  0  0  0  0
   -4.0349   -1.3045    0.3154 H   0  0  0  0  0  0  0  0  0  0  0  0
   -2.1513   -3.5085   -0.1377 H   0  0  0  0  0  0  0  0  0  0  0  0
   -2.9525   -2.9253   -1.6535 H   0  0  0  0  0  0  0  0  0  0  0  0
   -1.1577   -3.0167   -1.5672 H   0  0  0  0  0  0  0  0  0  0  0  0
   -0.6507   -0.3339   -1.7188 H   0  0  0  0  0  0  0  0  0  0  0  0
  1  2  2  3
  2  3  1  0
  3  4  2  0
  3  5  1  0
  5  6  1  0
  6  7  1  0
  7  8  1  0
  8  9  1  0
  9 10  1  0
 10 11  1  0
 10 12  2  0
 12 13  1  0
 13 14  2  0
 13 15  1  0
 15 16  2  0
 16 17  1  0
 16 18  1  0
  7  2  1  0
 18 12  1  0
 18  6  1  0
  1 19  1  0
  1 20  1  0
  6 21  1  1
  7 22  1  6
  8 23  1  0
  8 24  1  0
  9 25  1  0
  9 26  1  0
 11 27  1  0
 11 28  1  0
 11 29  1  0
 15 30  1  0
 17 31  1  0
 17 32  1  0
 17 33  1  0
 18 34  1  6
M  END

     RDKit          3D

 40 42  0  0  0  0  0  0  0  0999 V2000
    4.7854    2.5085    0.0698 C   0  0  0  0  0  0  0  0  0  0  0  0
    3.5256    1.8469    0.0004 O   0  0  0  0  0  0  0  0  0  0  0  0
    3.3345    0.4552   -0.0107 C   0  0  0  0  0  0  0  0  0  0  0  0
    4.4511   -0.4024    0.0521 C   0  0  0  0  0  0  0  0  0  0  0  0
    4.3026   -1.7823    0.0164 C   0  0  0  0  0  0  0  0  0  0  0  0
    3.0410   -2.3480   -0.0895 C   0  0  0  0  0  0  0  0  0  0  0  0
    1.8967   -1.5365   -0.1505 C   0  0  0  0  0  0  0  0  0  0  0  0
    0.6219   -2.1280   -0.2662 C   0  0  0  0  0  0  0  0  0  0  0  0
    0.4745   -3.3802   -0.3142 O   0  0  0  0  0  0  0  0  0  0  0  0
   -0.4839   -1.2993   -0.3288 C   0  0  0  0  0  0  0  0  0  0  0  0
   -0.3502    0.0497   -0.2601 C   0  0  0  0  0  0  0  0  0  0  0  0
    0.8606    0.6746   -0.1347 N   0  0  0  0  0  0  0  0  0  0  0  0
    0.8655    2.1443   -0.0362 C   0  0  0  0  0  0  0  0  0  0  0  0
    2.0174   -0.1032   -0.0968 C   0  0  0  0  0  0  0  0  0  0  0  0
   -1.5799    0.6742   -0.3267 O   0  0  0  0  0  0  0  0  0  0  0  0
   -2.6295   -0.2833   -0.4824 C   0  0  2  0  0  0  0  0  0  0  0  0
   -3.7229   -0.0925    0.6098 C   0  0  0  0  0  0  0  0  0  0  0  0
   -4.2506    1.3571    0.5869 C   0  0  0  0  0  0  0  0  0  0  0  0
   -4.9032   -1.0434    0.3417 C   0  0  0  0  0  0  0  0  0  0  0  0
   -3.2070   -0.3844    1.8878 O   0  0  0  0  0  0  0  0  0  0  0  0
   -1.9214   -1.6705   -0.4362 C   0  0  0  0  0  0  0  0  0  0  0  0
    5.3032    2.2461    1.0160 H   0  0  0  0  0  0  0  0  0  0  0  0
    4.6191    3.6048    0.0507 H   0  0  0  0  0  0  0  0  0  0  0  0
    5.4116    2.2314   -0.8039 H   0  0  0  0  0  0  0  0  0  0  0  0
    5.4552   -0.0085    0.1247 H   0  0  0  0  0  0  0  0  0  0  0  0
    5.1764   -2.4200    0.0642 H   0  0  0  0  0  0  0  0  0  0  0  0
    2.9634   -3.4281   -0.1225 H   0  0  0  0  0  0  0  0  0  0  0  0
    1.3745    2.5833   -0.9203 H   0  0  0  0  0  0  0  0  0  0  0  0
    1.3534    2.4613    0.9097 H   0  0  0  0  0  0  0  0  0  0  0  0
   -0.1580    2.5745   -0.0118 H   0  0  0  0  0  0  0  0  0  0  0  0
   -3.0798   -0.1400   -1.4904 H   0  0  0  0  0  0  0  0  0  0  0  0
   -5.0366    1.4938    1.3601 H   0  0  0  0  0  0  0  0  0  0  0  0
   -3.4344    2.0792    0.8022 H   0  0  0  0  0  0  0  0  0  0  0  0
   -4.6833    1.6018   -0.4072 H   0  0  0  0  0  0  0  0  0  0  0  0
   -4.5812   -2.1042    0.3972 H   0  0  0  0  0  0  0  0  0  0  0  0
   -5.7008   -0.8934    1.1015 H   0  0  0  0  0  0  0  0  0  0  0  0
   -5.3370   -0.8600   -0.6653 H   0  0  0  0  0  0  0  0  0  0  0  0
   -2.4581    0.2424    2.0673 H   0  0  0  0  0  0  0  0  0  0  0  0
   -2.2116   -2.2788    0.4467 H   0  0  0  0  0  0  0  0  0  0  0  0
   -2.1040   -2.2420   -1.3714 H   0  0  0  0  0  0  0  0  0  0  0  0
  1  2  1  0
  2  3  1  0
  3  4  2  0
  4  5  1  0
  5  6  2  0
  6  7  1  0
  7  8  1  0
  8  9  2  0
  8 10  1  0
 10 11  2  0
 11 12  1  0
 12 13  1  0
 12 14  1  0
 11 15  1  0
 15 16  1  0
 16 17  1  0
 17 18  1  0
 17 19  1  0
 17 20  1  0
 16 21  1  0
 14  3  1  0
 14  7  2  0
 21 10  1  0
  1 22  1  0
  1 23  1  0
  1 24  1  0
  4 25  1  0
  5 26  1  0
  6 27  1  0
 13 28  1  0
 13 29  1  0
 13 30  1  0
 16 31  1  6
 18 32  1  0
 18 33  1  0
 18 34  1  0
 19 35  1  0
 19 36  1  0
 19 37  1  0
 20 38  1  0
 21 39  1  0
 21 40  1  0
M  END

     RDKit          3D

 37 39  0  0  0  0  0  0  0  0999 V2000
    6.0678    0.3964    2.1862 C   0  0  0  0  0  0  0  0  0  0  0  0
    5.4385    0.8347    0.9859 O   0  0  0  0  0  0  0  0  0  0  0  0
    4.0629    0.7319    0.7329 C   0  0  0  0  0  0  0  0  0  0  0  0
    3.1531    0.2493    1.6925 C   0  0  0  0  0  0  0  0  0  0  0  0
    1.7935    0.1470    1.3837 C   0  0  0  0  0  0  0  0  0  0  0  0
    1.3229    0.5063    0.1106 C   0  0  0  0  0  0  0  0  0  0  0  0
   -0.1163    0.3648   -0.2015 C   0  0  0  0  0  0  0  0  0  0  0  0
   -0.9964    0.8032    0.6926 O   0  0  0  0  0  0  0  0  0  0  0  0
   -2.3092    0.7177    0.5249 C   0  0  0  0  0  0  0  0  0  0  0  0
   -3.1543    1.2083    1.5243 C   0  0  0  0  0  0  0  0  0  0  0  0
   -4.5434    1.1405    1.3731 C   0  0  0  0  0  0  0  0  0  0  0  0
   -5.3895    1.6238    2.3702 O   0  0  0  0  0  0  0  0  0  0  0  0
   -5.0876    0.5819    0.2137 C   0  0  0  0  0  0  0  0  0  0  0  0
   -4.2555    0.0770   -0.7971 C   0  0  0  0  0  0  0  0  0  0  0  0
   -4.8324   -0.4869   -1.9365 O   0  0  0  0  0  0  0  0  0  0  0  0
   -2.8486    0.1419   -0.6481 C   0  0  0  0  0  0  0  0  0  0  0  0
   -1.9474   -0.3500   -1.6179 C   0  0  0  0  0  0  0  0  0  0  0  0
   -2.3786   -0.8699   -2.6827 O   0  0  0  0  0  0  0  0  0  0  0  0
   -0.5575   -0.2560   -1.3880 C   0  0  0  0  0  0  0  0  0  0  0  0
    0.4091   -0.7690   -2.2752 O   0  0  0  0  0  0  0  0  0  0  0  0
    0.1849   -1.7744   -3.2637 C   0  0  0  0  0  0  0  0  0  0  0  0
    2.2292    1.0137   -0.8346 C   0  0  0  0  0  0  0  0  0  0  0  0
    3.5873    1.1237   -0.5231 C   0  0  0  0  0  0  0  0  0  0  0  0
    5.6915    0.9840    3.0507 H   0  0  0  0  0  0  0  0  0  0  0  0
    7.1624    0.5495    2.0963 H   0  0  0  0  0  0  0  0  0  0  0  0
    5.8706   -0.6842    2.3511 H   0  0  0  0  0  0  0  0  0  0  0  0
    3.4879   -0.0496    2.6773 H   0  0  0  0  0  0  0  0  0  0  0  0
    1.1116   -0.2330    2.1344 H   0  0  0  0  0  0  0  0  0  0  0  0
   -2.7259    1.6422    2.4191 H   0  0  0  0  0  0  0  0  0  0  0  0
   -5.0253    1.9786    3.2446 H   0  0  0  0  0  0  0  0  0  0  0  0
   -6.1638    0.5298    0.1050 H   0  0  0  0  0  0  0  0  0  0  0  0
   -5.8373   -0.5430   -2.0496 H   0  0  0  0  0  0  0  0  0  0  0  0
   -0.3362   -2.6487   -2.8107 H   0  0  0  0  0  0  0  0  0  0  0  0
    1.1695   -2.1140   -3.6510 H   0  0  0  0  0  0  0  0  0  0  0  0
   -0.3982   -1.3643   -4.1188 H   0  0  0  0  0  0  0  0  0  0  0  0
    1.8854    1.3433   -1.8060 H   0  0  0  0  0  0  0  0  0  0  0  0
    4.2753    1.5076   -1.2649 H   0  0  0  0  0  0  0  0  0  0  0  0
  1  2  1  0
  2  3  1  0
  3  4  2  0
  4  5  1  0
  5  6  2  0
  6  7  1  0
  7  8  1  0
  8  9  1  0
  9 10  2  0
 10 11  1  0
 11 12  1  0
 11 13  2  0
 13 14  1  0
 14 15  1  0
 14 16  2  0
 16 17  1  0
 17 18  2  0
 17 19  1  0
 19 20  1  0
 20 21  1  0
  6 22  1  0
 22 23  2  0
 23  3  1  0
 19  7  2  0
 16  9  1  0
  1 24  1  0
  1 25  1  0
  1 26  1  0
  4 27  1  0
  5 28  1  0
 10 29  1  0
 12 30  1  0
 13 31  1  0
 15 32  1  0
 21 33  1  0
 21 34  1  0
 21 35  1  0
 22 36  1  0
 23 37  1  0
M  END

     RDKit          3D

 34 36  0  0  0  0  0  0  0  0999 V2000
    6.2614   -0.8897    0.8711 C   0  0  0  0  0  0  0  0  0  0  0  0
    5.2544   -1.1309   -0.1046 O   0  0  0  0  0  0  0  0  0  0  0  0
    3.9167   -0.7213    0.0140 C   0  0  0  0  0  0  0  0  0  0  0  0
    3.4451   -0.0315    1.1466 C   0  0  0  0  0  0  0  0  0  0  0  0
    2.1051    0.3519    1.2383 C   0  0  0  0  0  0  0  0  0  0  0  0
    1.2069    0.0665    0.1931 C   0  0  0  0  0  0  0  0  0  0  0  0
   -0.2316    0.4295    0.2761 C   0  0  0  0  0  0  0  0  0  0  0  0
   -0.6863    1.4927    1.0734 C   0  0  0  0  0  0  0  0  0  0  0  0
   -2.0520    1.7732    1.1338 C   0  0  0  0  0  0  0  0  0  0  0  0
   -2.4500    2.7290    1.8546 O   0  0  0  0  0  0  0  0  0  0  0  0
   -2.9552    0.9918    0.3859 C   0  0  0  0  0  0  0  0  0  0  0  0
   -4.3549    1.2006    0.3979 C   0  0  0  0  0  0  0  0  0  0  0  0
   -4.9243    2.2050    1.1846 O   0  0  0  0  0  0  0  0  0  0  0  0
   -5.1851    0.3842   -0.3857 C   0  0  0  0  0  0  0  0  0  0  0  0
   -4.6415   -0.6352   -1.1778 C   0  0  0  0  0  0  0  0  0  0  0  0
   -5.4648   -1.4432   -1.9598 O   0  0  0  0  0  0  0  0  0  0  0  0
   -3.2625   -0.8480   -1.1875 C   0  0  0  0  0  0  0  0  0  0  0  0
   -2.4182   -0.0469   -0.4124 C   0  0  0  0  0  0  0  0  0  0  0  0
   -1.1093   -0.2770   -0.4316 O   0  0  0  0  0  0  0  0  0  0  0  0
    1.6812   -0.6250   -0.9355 C   0  0  0  0  0  0  0  0  0  0  0  0
    3.0210   -1.0164   -1.0287 C   0  0  0  0  0  0  0  0  0  0  0  0
    3.4429   -1.7034   -2.1683 O   0  0  0  0  0  0  0  0  0  0  0  0
    7.2202   -1.3192    0.5143 H   0  0  0  0  0  0  0  0  0  0  0  0
    5.9892   -1.3768    1.8308 H   0  0  0  0  0  0  0  0  0  0  0  0
    6.3945    0.2030    1.0200 H   0  0  0  0  0  0  0  0  0  0  0  0
    4.1032    0.2019    1.9710 H   0  0  0  0  0  0  0  0  0  0  0  0
    1.7745    0.8432    2.1437 H   0  0  0  0  0  0  0  0  0  0  0  0
    0.0046    2.1140    1.6265 H   0  0  0  0  0  0  0  0  0  0  0  0
   -5.9254    2.3625    1.2058 H   0  0  0  0  0  0  0  0  0  0  0  0
   -6.2564    0.5409   -0.3771 H   0  0  0  0  0  0  0  0  0  0  0  0
   -6.4694   -1.3138   -1.9758 H   0  0  0  0  0  0  0  0  0  0  0  0
   -2.8465   -1.6416   -1.7979 H   0  0  0  0  0  0  0  0  0  0  0  0
    1.0110   -0.8636   -1.7535 H   0  0  0  0  0  0  0  0  0  0  0  0
    4.4014   -2.0059   -2.2931 H   0  0  0  0  0  0  0  0  0  0  0  0
  1  2  1  0
  2  3  1  0
  3  4  2  0
  4  5  1  0
  5  6  2  0
  6  7  1  0
  7  8  2  0
  8  9  1  0
  9 10  2  0
  9 11  1  0
 11 12  2  0
 12 13  1  0
 12 14  1  0
 14 15  2  0
 15 16  1  0
 15 17  1  0
 17 18  2  0
 18 19  1  0
  6 20  1  0
 20 21  2  0
 21 22  1  0
 21  3  1  0
 19  7  1  0
 18 11  1  0
  1 23  1  0
  1 24  1  0
  1 25  1  0
  4 26  1  0
  5 27  1  0
  8 28  1  0
 13 29  1  0
 14 30  1  0
 16 31  1  0
 17 32  1  0
 20 33  1  0
 22 34  1  0
M  END

     RDKit          3D

 48 50  0  0  0  0  0  0  0  0999 V2000
   -7.1564    0.0707   -0.1211 C   0  0  0  0  0  0  0  0  0  0  0  0
   -6.0571   -0.7328    0.3043 O   0  0  0  0  0  0  0  0  0  0  0  0
   -4.7040   -0.3959    0.1347 C   0  0  0  0  0  0  0  0  0  0  0  0
   -4.3014    0.7678   -0.5490 C   0  0  0  0  0  0  0  0  0  0  0  0
   -2.9467    1.0882   -0.6602 C   0  0  0  0  0  0  0  0  0  0  0  0
   -1.9660    0.2570   -0.0985 C   0  0  0  0  0  0  0  0  0  0  0  0
   -0.5208    0.5871   -0.1947 C   0  0  0  0  0  0  0  0  0  0  0  0
    0.3365   -0.4063   -0.3987 O   0  0  0  0  0  0  0  0  0  0  0  0
    1.6483   -0.2307   -0.4940 C   0  0  0  0  0  0  0  0  0  0  0  0
    2.4608   -1.3541   -0.6478 C   0  0  0  0  0  0  0  0  0  0  0  0
    3.8578   -1.2194   -0.7088 C   0  0  0  0  0  0  0  0  0  0  0  0
    4.7104   -2.3307   -0.8132 O   0  0  0  0  0  0  0  0  0  0  0  0
    4.2608   -3.6809   -0.8363 C   0  0  0  0  0  0  0  0  0  0  0  0
    4.4299    0.0567   -0.6787 C   0  0  0  0  0  0  0  0  0  0  0  0
    5.8205    0.1616   -0.7606 O   0  0  0  0  0  0  0  0  0  0  0  0
    6.6007    0.8207    0.2402 C   0  0  0  0  0  0  0  0  0  0  0  0
    3.6165    1.2066   -0.6257 C   0  0  0  0  0  0  0  0  0  0  0  0
    4.2361    2.4458   -0.8228 O   0  0  0  0  0  0  0  0  0  0  0  0
    2.2144    1.0658   -0.4388 C   0  0  0  0  0  0  0  0  0  0  0  0
    1.3410    2.1428   -0.1617 C   0  0  0  0  0  0  0  0  0  0  0  0
    1.7820    3.3139   -0.0124 O   0  0  0  0  0  0  0  0  0  0  0  0
   -0.0390    1.9007   -0.0140 C   0  0  0  0  0  0  0  0  0  0  0  0
   -0.9457    2.9253    0.3077 O   0  0  0  0  0  0  0  0  0  0  0  0
   -0.7607    3.8394    1.3887 C   0  0  0  0  0  0  0  0  0  0  0  0
   -2.3654   -0.9250    0.5444 C   0  0  0  0  0  0  0  0  0  0  0  0
   -3.7298   -1.2536    0.6721 C   0  0  0  0  0  0  0  0  0  0  0  0
   -4.1564   -2.4214    1.3233 O   0  0  0  0  0  0  0  0  0  0  0  0
   -3.2818   -3.4058    1.8702 C   0  0  0  0  0  0  0  0  0  0  0  0
   -7.1367    1.0578    0.3873 H   0  0  0  0  0  0  0  0  0  0  0  0
   -8.1004   -0.4439    0.1522 H   0  0  0  0  0  0  0  0  0  0  0  0
   -7.1446    0.2118   -1.2200 H   0  0  0  0  0  0  0  0  0  0  0  0
   -5.0263    1.4365   -0.9924 H   0  0  0  0  0  0  0  0  0  0  0  0
   -2.6729    1.9755   -1.2139 H   0  0  0  0  0  0  0  0  0  0  0  0
    1.9832   -2.3248   -0.6809 H   0  0  0  0  0  0  0  0  0  0  0  0
    3.7156   -3.9116    0.1011 H   0  0  0  0  0  0  0  0  0  0  0  0
    5.1364   -4.3500   -0.9078 H   0  0  0  0  0  0  0  0  0  0  0  0
    3.6107   -3.8550   -1.7218 H   0  0  0  0  0  0  0  0  0  0  0  0
    6.3396    1.8951    0.3341 H   0  0  0  0  0  0  0  0  0  0  0  0
    7.6721    0.7470   -0.0367 H   0  0  0  0  0  0  0  0  0  0  0  0
    6.4421    0.3263    1.2237 H   0  0  0  0  0  0  0  0  0  0  0  0
    3.7711    3.2720   -1.1700 H   0  0  0  0  0  0  0  0  0  0  0  0
   -0.5944    3.2777    2.3404 H   0  0  0  0  0  0  0  0  0  0  0  0
    0.0936    4.5255    1.1971 H   0  0  0  0  0  0  0  0  0  0  0  0
   -1.6822    4.4506    1.4920 H   0  0  0  0  0  0  0  0  0  0  0  0
   -1.6101   -1.5726    0.9706 H   0  0  0  0  0  0  0  0  0  0  0  0
   -2.6491   -2.9519    2.6673 H   0  0  0  0  0  0  0  0  0  0  0  0
   -2.6414   -3.8394    1.0672 H   0  0  0  0  0  0  0  0  0  0  0  0
   -3.8909   -4.2205    2.3263 H   0  0  0  0  0  0  0  0  0  0  0  0
  1  2  1  0
  2  3  1  0
  3  4  2  0
  4  5  1  0
  5  6  2  0
  6  7  1  0
  7  8  1  0
  8  9  1  0
  9 10  2  0
 10 11  1  0
 11 12  1  0
 12 13  1  0
 11 14  2  0
 14 15  1  0
 15 16  1  0
 14 17  1  0
 17 18  1  0
 17 19  2  0
 19 20  1  0
 20 21  2  0
 20 22  1  0
 22 23  1  0
 23 24  1  0
  6 25  1  0
 25 26  2  0
 26 27  1  0
 27 28  1  0
 26  3  1  0
 22  7  2  0
 19  9  1  0
  1 29  1  0
  1 30  1  0
  1 31  1  0
  4 32  1  0
  5 33  1  0
 10 34  1  0
 13 35  1  0
 13 36  1  0
 13 37  1  0
 16 38  1  0
 16 39  1  0
 16 40  1  0
 18 41  1  0
 24 42  1  0
 24 43  1  0
 24 44  1  0
 25 45  1  0
 28 46  1  0
 28 47  1  0
 28 48  1  0
M  END

     RDKit          3D

 44 46  0  0  0  0  0  0  0  0999 V2000
    6.0537   -2.9120   -2.0081 C   0  0  0  0  0  0  0  0  0  0  0  0
    4.6514   -2.7526   -1.8183 O   0  0  0  0  0  0  0  0  0  0  0  0
    4.0688   -1.7788   -0.9942 C   0  0  0  0  0  0  0  0  0  0  0  0
    4.8330   -0.8797   -0.2333 C   0  0  0  0  0  0  0  0  0  0  0  0
    4.2213    0.0896    0.5713 C   0  0  0  0  0  0  0  0  0  0  0  0
    5.0644    0.8607    1.3758 O   0  0  0  0  0  0  0  0  0  0  0  0
    2.8035    0.2210    0.5600 C   0  0  0  0  0  0  0  0  0  0  0  0
    2.0910    1.2595    1.2041 C   0  0  0  0  0  0  0  0  0  0  0  0
    2.6894    2.1815    1.8166 O   0  0  0  0  0  0  0  0  0  0  0  0
    0.6877    1.2871    1.1406 C   0  0  0  0  0  0  0  0  0  0  0  0
   -0.0441    2.3319    1.7193 O   0  0  0  0  0  0  0  0  0  0  0  0
    0.0993    3.6916    1.3169 C   0  0  0  0  0  0  0  0  0  0  0  0
    0.0159    0.2512    0.4671 C   0  0  0  0  0  0  0  0  0  0  0  0
   -1.4648    0.1865    0.4016 C   0  0  0  0  0  0  0  0  0  0  0  0
   -2.2643    0.4802    1.5200 C   0  0  0  0  0  0  0  0  0  0  0  0
   -3.6562    0.4211    1.4307 C   0  0  0  0  0  0  0  0  0  0  0  0
   -4.2778    0.0469    0.2248 C   0  0  0  0  0  0  0  0  0  0  0  0
   -5.6756   -0.0206    0.0963 O   0  0  0  0  0  0  0  0  0  0  0  0
   -6.6013    0.3330    1.1204 C   0  0  0  0  0  0  0  0  0  0  0  0
   -3.4878   -0.2815   -0.8875 C   0  0  0  0  0  0  0  0  0  0  0  0
   -4.1341   -0.6754   -2.0680 O   0  0  0  0  0  0  0  0  0  0  0  0
   -3.4634   -1.0528   -3.2695 C   0  0  0  0  0  0  0  0  0  0  0  0
   -2.0844   -0.2125   -0.7924 C   0  0  0  0  0  0  0  0  0  0  0  0
    0.7166   -0.6789   -0.1738 O   0  0  0  0  0  0  0  0  0  0  0  0
    2.0437   -0.7210   -0.1783 C   0  0  0  0  0  0  0  0  0  0  0  0
    2.6782   -1.7073   -0.9361 C   0  0  0  0  0  0  0  0  0  0  0  0
    6.2335   -3.7420   -2.7214 H   0  0  0  0  0  0  0  0  0  0  0  0
    6.4876   -1.9814   -2.4299 H   0  0  0  0  0  0  0  0  0  0  0  0
    6.5481   -3.1571   -1.0424 H   0  0  0  0  0  0  0  0  0  0  0  0
    5.9122   -0.9406   -0.2354 H   0  0  0  0  0  0  0  0  0  0  0  0
    4.7704    1.3254    2.2209 H   0  0  0  0  0  0  0  0  0  0  0  0
   -0.0804    3.7860    0.2237 H   0  0  0  0  0  0  0  0  0  0  0  0
    1.1114    4.0762    1.5631 H   0  0  0  0  0  0  0  0  0  0  0  0
   -0.6523    4.3041    1.8547 H   0  0  0  0  0  0  0  0  0  0  0  0
   -1.8186    0.7402    2.4716 H   0  0  0  0  0  0  0  0  0  0  0  0
   -4.2384    0.6731    2.3048 H   0  0  0  0  0  0  0  0  0  0  0  0
   -7.6340    0.1972    0.7391 H   0  0  0  0  0  0  0  0  0  0  0  0
   -6.4640   -0.3226    2.0070 H   0  0  0  0  0  0  0  0  0  0  0  0
   -6.4633    1.3973    1.4087 H   0  0  0  0  0  0  0  0  0  0  0  0
   -2.8397   -0.2141   -3.6487 H   0  0  0  0  0  0  0  0  0  0  0  0
   -4.2192   -1.3056   -4.0400 H   0  0  0  0  0  0  0  0  0  0  0  0
   -2.8318   -1.9475   -3.0871 H   0  0  0  0  0  0  0  0  0  0  0  0
   -1.4691   -0.4452   -1.6530 H   0  0  0  0  0  0  0  0  0  0  0  0
    2.0836   -2.4124   -1.5051 H   0  0  0  0  0  0  0  0  0  0  0  0
  1  2  1  0
  2  3  1  0
  3  4  2  0
  4  5  1  0
  5  6  1  0
  5  7  2  0
  7  8  1  0
  8  9  2  0
  8 10  1  0
 10 11  1  0
 11 12  1  0
 10 13  2  0
 13 14  1  0
 14 15  2  0
 15 16  1  0
 16 17  2  0
 17 18  1  0
 18 19  1  0
 17 20  1  0
 20 21  1  0
 21 22  1  0
 20 23  2  0
 13 24  1  0
 24 25  1  0
 25 26  2  0
 26  3  1  0
 25  7  1  0
 23 14  1  0
  1 27  1  0
  1 28  1  0
  1 29  1  0
  4 30  1  0
  6 31  1  0
 12 32  1  0
 12 33  1  0
 12 34  1  0
 15 35  1  0
 16 36  1  0
 19 37  1  0
 19 38  1  0
 19 39  1  0
 22 40  1  0
 22 41  1  0
 22 42  1  0
 23 43  1  0
 26 44  1  0
M  END

     RDKit          3D

 28 29  0  0  0  0  0  0  0  0999 V2000
   -1.2386   -0.9615    1.0603 C   0  0  0  0  0  0  0  0  0  0  0  0
   -1.1065   -0.3481   -0.3636 C   0  0  0  0  0  0  0  0  0  0  0  0
   -2.0601   -1.1165   -1.3139 C   0  0  0  0  0  0  0  0  0  0  0  0
   -1.2305    1.1929   -0.5261 C   0  0  1  0  0  0  0  0  0  0  0  0
   -0.5323    1.9252    0.6729 C   0  0  0  0  0  0  0  0  0  0  0  0
    0.8669    1.3258    0.9151 C   0  0  0  0  0  0  0  0  0  0  0  0
    1.2805    0.2842    0.1323 C   0  0  0  0  0  0  0  0  0  0  0  0
    2.6105   -0.3844    0.3386 C   0  0  0  0  0  0  0  0  0  0  0  0
    2.5081   -1.4294    1.4101 C   0  0  0  0  0  0  0  0  0  0  0  0
    2.3161   -1.1092    2.5753 O   0  0  0  0  0  0  0  0  0  0  0  0
    0.3138   -0.1808   -0.9668 C   0  0  2  0  0  0  0  0  0  0  0  0
   -0.1709    1.1161   -1.6456 C   0  0  0  0  0  0  0  0  0  0  0  0
   -2.2804   -0.8377    1.4201 H   0  0  0  0  0  0  0  0  0  0  0  0
   -0.5767   -0.5285    1.8309 H   0  0  0  0  0  0  0  0  0  0  0  0
   -1.0107   -2.0474    1.0192 H   0  0  0  0  0  0  0  0  0  0  0  0
   -3.1059   -1.0351   -0.9442 H   0  0  0  0  0  0  0  0  0  0  0  0
   -1.7763   -2.1910   -1.3470 H   0  0  0  0  0  0  0  0  0  0  0  0
   -2.0428   -0.7329   -2.3557 H   0  0  0  0  0  0  0  0  0  0  0  0
   -2.2240    1.5879   -0.8292 H   0  0  0  0  0  0  0  0  0  0  0  0
   -1.1493    1.8271    1.5913 H   0  0  0  0  0  0  0  0  0  0  0  0
   -0.4295    3.0069    0.4396 H   0  0  0  0  0  0  0  0  0  0  0  0
    1.4939    1.7118    1.7131 H   0  0  0  0  0  0  0  0  0  0  0  0
    3.3873    0.3667    0.6093 H   0  0  0  0  0  0  0  0  0  0  0  0
    2.9272   -0.8724   -0.6102 H   0  0  0  0  0  0  0  0  0  0  0  0
    2.6103   -2.4799    1.1529 H   0  0  0  0  0  0  0  0  0  0  0  0
    0.6713   -0.9854   -1.6462 H   0  0  0  0  0  0  0  0  0  0  0  0
   -0.6142    0.9400   -2.6502 H   0  0  0  0  0  0  0  0  0  0  0  0
    0.5628    1.9556   -1.6826 H   0  0  0  0  0  0  0  0  0  0  0  0
  1  2  1  0
  2  3  1  0
  2  4  1  0
  4  5  1  0
  5  6  1  0
  6  7  2  0
  7  8  1  0
  8  9  1  0
  9 10  2  0
  7 11  1  0
 11 12  1  0
 11  2  1  0
 12  4  1  0
  1 13  1  0
  1 14  1  0
  1 15  1  0
  3 16  1  0
  3 17  1  0
  3 18  1  0
  4 19  1  6
  5 20  1  0
  5 21  1  0
  6 22  1  0
  8 23  1  0
  8 24  1  0
  9 25  1  0
 11 26  1  6
 12 27  1  0
 12 28  1  0
M  END

     RDKit          3D

 31 33  0  0  0  0  0  0  0  0999 V2000
    1.8838    1.8001    2.3445 O   0  0  0  0  0  0  0  0  0  0  0  0
    1.3301    1.1112    1.4457 C   0  0  0  0  0  0  0  0  0  0  0  0
   -0.0628    1.1075    1.3640 C   0  0  0  0  0  0  0  0  0  0  0  0
   -0.6947    0.3449    0.3696 C   0  0  0  0  0  0  0  0  0  0  0  0
   -2.1728    0.3037    0.2337 C   0  0  0  0  0  0  0  0  0  0  0  0
   -2.9852    1.3801    0.6427 C   0  0  0  0  0  0  0  0  0  0  0  0
   -4.3740    1.3164    0.4936 C   0  0  0  0  0  0  0  0  0  0  0  0
   -4.9715    0.1866   -0.0709 C   0  0  0  0  0  0  0  0  0  0  0  0
   -6.3565    0.1378   -0.2110 O   0  0  0  0  0  0  0  0  0  0  0  0
   -4.1725   -0.8828   -0.4929 C   0  0  0  0  0  0  0  0  0  0  0  0
   -2.7836   -0.8232   -0.3462 C   0  0  0  0  0  0  0  0  0  0  0  0
    0.0454   -0.3745   -0.4701 O   0  0  0  0  0  0  0  0  0  0  0  0
    1.3739   -0.4041   -0.4325 C   0  0  0  0  0  0  0  0  0  0  0  0
    2.0589   -1.1874   -1.3594 C   0  0  0  0  0  0  0  0  0  0  0  0
    3.4544   -1.2376   -1.3503 C   0  0  0  0  0  0  0  0  0  0  0  0
    4.1311   -2.0233   -2.2823 O   0  0  0  0  0  0  0  0  0  0  0  0
    4.1845   -0.5009   -0.4087 C   0  0  0  0  0  0  0  0  0  0  0  0
    5.5785   -0.5914   -0.4582 O   0  0  0  0  0  0  0  0  0  0  0  0
    3.5042    0.2988    0.5458 C   0  0  0  0  0  0  0  0  0  0  0  0
    4.2016    1.0427    1.5037 O   0  0  0  0  0  0  0  0  0  0  0  0
    2.0863    0.3463    0.5313 C   0  0  0  0  0  0  0  0  0  0  0  0
   -0.6366    1.6735    2.0864 H   0  0  0  0  0  0  0  0  0  0  0  0
   -2.5537    2.2824    1.0539 H   0  0  0  0  0  0  0  0  0  0  0  0
   -4.9864    2.1506    0.8111 H   0  0  0  0  0  0  0  0  0  0  0  0
   -6.8198   -0.6665   -0.6176 H   0  0  0  0  0  0  0  0  0  0  0  0
   -4.6263   -1.7609   -0.9346 H   0  0  0  0  0  0  0  0  0  0  0  0
   -2.1871   -1.6651   -0.6761 H   0  0  0  0  0  0  0  0  0  0  0  0
    1.5027   -1.7592   -2.0922 H   0  0  0  0  0  0  0  0  0  0  0  0
    3.6351   -2.5695   -2.9772 H   0  0  0  0  0  0  0  0  0  0  0  0
    6.2064   -0.0984    0.1591 H   0  0  0  0  0  0  0  0  0  0  0  0
    5.2065    1.0621    1.5951 H   0  0  0  0  0  0  0  0  0  0  0  0
  1  2  2  0
  2  3  1  0
  3  4  2  0
  4  5  1  0
  5  6  2  0
  6  7  1  0
  7  8  2  0
  8  9  1  0
  8 10  1  0
 10 11  2  0
  4 12  1  0
 12 13  1  0
 13 14  2  0
 14 15  1  0
 15 16  1  0
 15 17  2  0
 17 18  1  0
 17 19  1  0
 19 20  1  0
 19 21  2  0
 21  2  1  0
 11  5  1  0
 21 13  1  0
  3 22  1  0
  6 23  1  0
  7 24  1  0
  9 25  1  0
 10 26  1  0
 11 27  1  0
 14 28  1  0
 16 29  1  0
 18 30  1  0
 20 31  1  0
M  END

     RDKit          3D

 43 45  0  0  0  0  0  0  0  0999 V2000
    6.3160   -0.2750   -1.0094 C   0  0  0  0  0  0  0  0  0  0  0  0
    5.0631    0.5472   -1.2036 C   0  0  0  0  0  0  0  0  0  0  0  0
    5.1785    2.0391   -1.3878 C   0  0  0  0  0  0  0  0  0  0  0  0
    3.8294   -0.0096   -1.2265 C   0  0  0  0  0  0  0  0  0  0  0  0
    3.5398   -1.4789   -1.0155 C   0  0  0  0  0  0  0  0  0  0  0  0
    2.9804   -1.6933    0.2796 O   0  0  0  0  0  0  0  0  0  0  0  0
    1.6861   -1.3198    0.6815 C   0  0  0  0  0  0  0  0  0  0  0  0
    1.3373   -1.4931    2.0221 C   0  0  0  0  0  0  0  0  0  0  0  0
    0.0663   -1.1371    2.4886 C   0  0  0  0  0  0  0  0  0  0  0  0
   -0.2517   -1.3440    3.8313 O   0  0  0  0  0  0  0  0  0  0  0  0
   -0.8819   -0.5813    1.6005 C   0  0  0  0  0  0  0  0  0  0  0  0
   -0.5376   -0.4077    0.2446 C   0  0  0  0  0  0  0  0  0  0  0  0
    0.7373   -0.7877   -0.2082 C   0  0  0  0  0  0  0  0  0  0  0  0
   -1.5155    0.1833   -0.6965 C   0  0  0  0  0  0  0  0  0  0  0  0
   -1.1653    0.4544   -1.8792 O   0  0  0  0  0  0  0  0  0  0  0  0
   -2.9085    0.4398   -0.2590 C   0  0  0  0  0  0  0  0  0  0  0  0
   -3.8576    0.9210   -1.1783 C   0  0  0  0  0  0  0  0  0  0  0  0
   -5.1754    1.1691   -0.7794 C   0  0  0  0  0  0  0  0  0  0  0  0
   -6.1909    1.6583   -1.7715 C   0  0  0  0  0  0  0  0  0  0  0  0
   -5.5693    0.8556    0.5249 C   0  0  0  0  0  0  0  0  0  0  0  0
   -4.6517    0.3467    1.4490 C   0  0  0  0  0  0  0  0  0  0  0  0
   -5.1469   -0.0342    2.6984 O   0  0  0  0  0  0  0  0  0  0  0  0
   -3.2864    0.2009    1.0827 C   0  0  0  0  0  0  0  0  0  0  0  0
   -2.2241   -0.1409    2.0692 C   0  0  0  0  0  0  0  0  0  0  0  0
   -2.4258    0.0376    3.3005 O   0  0  0  0  0  0  0  0  0  0  0  0
    7.2237    0.3639   -0.9949 H   0  0  0  0  0  0  0  0  0  0  0  0
    6.4260   -0.9984   -1.8450 H   0  0  0  0  0  0  0  0  0  0  0  0
    6.2697   -0.8179   -0.0402 H   0  0  0  0  0  0  0  0  0  0  0  0
    4.6821    2.5624   -0.5425 H   0  0  0  0  0  0  0  0  0  0  0  0
    4.6830    2.3402   -2.3358 H   0  0  0  0  0  0  0  0  0  0  0  0
    6.2383    2.3710   -1.4317 H   0  0  0  0  0  0  0  0  0  0  0  0
    2.9716    0.6449   -1.3677 H   0  0  0  0  0  0  0  0  0  0  0  0
    2.8469   -1.8441   -1.8014 H   0  0  0  0  0  0  0  0  0  0  0  0
    4.4525   -2.1007   -1.1071 H   0  0  0  0  0  0  0  0  0  0  0  0
    2.0588   -1.9192    2.7072 H   0  0  0  0  0  0  0  0  0  0  0  0
    0.4138   -1.7390    4.4861 H   0  0  0  0  0  0  0  0  0  0  0  0
    0.9822   -0.6610   -1.2530 H   0  0  0  0  0  0  0  0  0  0  0  0
   -3.5734    1.1122   -2.2071 H   0  0  0  0  0  0  0  0  0  0  0  0
   -6.7520    0.7917   -2.1843 H   0  0  0  0  0  0  0  0  0  0  0  0
   -6.9066    2.3527   -1.2788 H   0  0  0  0  0  0  0  0  0  0  0  0
   -5.7023    2.2049   -2.6079 H   0  0  0  0  0  0  0  0  0  0  0  0
   -6.6045    0.9840    0.8219 H   0  0  0  0  0  0  0  0  0  0  0  0
   -4.6554   -0.6554    3.3243 H   0  0  0  0  0  0  0  0  0  0  0  0
  1  2  1  0
  2  3  1  0
  2  4  2  3
  4  5  1  0
  5  6  1  0
  6  7  1  0
  7  8  2  0
  8  9  1  0
  9 10  1  0
  9 11  2  0
 11 12  1  0
 12 13  2  0
 12 14  1  0
 14 15  2  0
 14 16  1  0
 16 17  2  0
 17 18  1  0
 18 19  1  0
 18 20  2  0
 20 21  1  0
 21 22  1  0
 21 23  2  0
 23 24  1  0
 24 25  2  0
 13  7  1  0
 23 16  1  0
 24 11  1  0
  1 26  1  0
  1 27  1  0
  1 28  1  0
  3 29  1  0
  3 30  1  0
  3 31  1  0
  4 32  1  0
  5 33  1  0
  5 34  1  0
  8 35  1  0
 10 36  1  0
 13 37  1  0
 17 38  1  0
 19 39  1  0
 19 40  1  0
 19 41  1  0
 20 42  1  0
 22 43  1  0
M  END

     RDKit          3D

 35 37  0  0  0  0  0  0  0  0999 V2000
   -1.8435   -2.7329    1.2271 C   0  0  0  0  0  0  0  0  0  0  0  0
   -1.0229   -2.1694    0.2075 O   0  0  0  0  0  0  0  0  0  0  0  0
   -0.0681   -1.1711    0.4520 C   0  0  0  0  0  0  0  0  0  0  0  0
   -0.1365    0.0421   -0.2545 C   0  0  0  0  0  0  0  0  0  0  0  0
   -1.1609    0.2849   -1.2936 C   0  0  0  0  0  0  0  0  0  0  0  0
   -1.8327    1.5175   -1.3304 C   0  0  0  0  0  0  0  0  0  0  0  0
   -2.7859    1.7728   -2.3202 C   0  0  0  0  0  0  0  0  0  0  0  0
   -3.0673    0.8071   -3.2956 C   0  0  0  0  0  0  0  0  0  0  0  0
   -4.0169    1.0582   -4.2848 O   0  0  0  0  0  0  0  0  0  0  0  0
   -2.3860   -0.4162   -3.2795 C   0  0  0  0  0  0  0  0  0  0  0  0
   -2.6526   -1.3660   -4.2614 O   0  0  0  0  0  0  0  0  0  0  0  0
   -1.4343   -0.6752   -2.2829 C   0  0  0  0  0  0  0  0  0  0  0  0
    0.7143    1.0205    0.0283 O   0  0  0  0  0  0  0  0  0  0  0  0
    1.6887    0.9064    0.9221 C   0  0  0  0  0  0  0  0  0  0  0  0
    2.5116    2.0105    1.1525 C   0  0  0  0  0  0  0  0  0  0  0  0
    3.5552    1.9336    2.0746 C   0  0  0  0  0  0  0  0  0  0  0  0
    4.3747    3.0350    2.3113 O   0  0  0  0  0  0  0  0  0  0  0  0
    3.7904    0.7405    2.7562 C   0  0  0  0  0  0  0  0  0  0  0  0
    2.9972   -0.3906    2.5325 C   0  0  0  0  0  0  0  0  0  0  0  0
    3.3690   -1.5521    3.2178 O   0  0  0  0  0  0  0  0  0  0  0  0
    1.8943   -0.3091    1.6271 C   0  0  0  0  0  0  0  0  0  0  0  0
    0.9625   -1.3507    1.3924 C   0  0  0  0  0  0  0  0  0  0  0  0
    1.0347   -2.4436    2.0104 O   0  0  0  0  0  0  0  0  0  0  0  0
   -1.2422   -3.3187    1.9530 H   0  0  0  0  0  0  0  0  0  0  0  0
   -2.5802   -3.4163    0.7551 H   0  0  0  0  0  0  0  0  0  0  0  0
   -2.3981   -1.9264    1.7559 H   0  0  0  0  0  0  0  0  0  0  0  0
   -1.6251    2.2777   -0.5872 H   0  0  0  0  0  0  0  0  0  0  0  0
   -3.3041    2.7234   -2.3284 H   0  0  0  0  0  0  0  0  0  0  0  0
   -4.5249    1.9339   -4.3213 H   0  0  0  0  0  0  0  0  0  0  0  0
   -2.1712   -2.2580   -4.2811 H   0  0  0  0  0  0  0  0  0  0  0  0
   -0.8930   -1.6129   -2.2979 H   0  0  0  0  0  0  0  0  0  0  0  0
    2.3354    2.9336    0.6136 H   0  0  0  0  0  0  0  0  0  0  0  0
    4.2273    3.9175    1.8376 H   0  0  0  0  0  0  0  0  0  0  0  0
    4.6163    0.6808    3.4541 H   0  0  0  0  0  0  0  0  0  0  0  0
    3.0750   -2.4869    2.9812 H   0  0  0  0  0  0  0  0  0  0  0  0
  1  2  1  0
  2  3  1  0
  3  4  2  0
  4  5  1  0
  5  6  2  0
  6  7  1  0
  7  8  2  0
  8  9  1  0
  8 10  1  0
 10 11  1  0
 10 12  2  0
  4 13  1  0
 13 14  1  0
 14 15  2  0
 15 16  1  0
 16 17  1  0
 16 18  2  0
 18 19  1  0
 19 20  1  0
 19 21  2  0
 21 22  1  0
 22 23  2  0
 22  3  1  0
 12  5  1  0
 21 14  1  0
  1 24  1  0
  1 25  1  0
  1 26  1  0
  6 27  1  0
  7 28  1  0
  9 29  1  0
 11 30  1  0
 12 31  1  0
 15 32  1  0
 17 33  1  0
 18 34  1  0
 20 35  1  0
M  END

     RDKit          3D

 42 45  0  0  0  0  0  0  0  0999 V2000
    6.4581    0.1689   -0.0533 C   0  0  0  0  0  0  0  0  0  0  0  0
    5.4037    0.9580   -0.6160 O   0  0  0  0  0  0  0  0  0  0  0  0
    4.0390    0.6479   -0.4964 C   0  0  0  0  0  0  0  0  0  0  0  0
    3.5688   -0.3846    0.3379 C   0  0  0  0  0  0  0  0  0  0  0  0
    2.1933   -0.6479    0.4374 C   0  0  0  0  0  0  0  0  0  0  0  0
    1.2643    0.1489   -0.2724 C   0  0  0  0  0  0  0  0  0  0  0  0
    1.7501    1.1417   -1.1404 C   0  0  0  0  0  0  0  0  0  0  0  0
    3.1217    1.4058   -1.2245 C   0  0  0  0  0  0  0  0  0  0  0  0
    3.5811    2.4252   -2.0608 O   0  0  0  0  0  0  0  0  0  0  0  0
   -0.2304   -0.1724   -0.2471 C   0  0  2  0  0  0  0  0  0  0  0  0
   -1.0754    1.0891    0.0092 C   0  0  0  0  0  0  0  0  0  0  0  0
   -2.5370    0.7464    0.0482 C   0  0  0  0  0  0  0  0  0  0  0  0
   -3.4897    1.7505   -0.1882 C   0  0  0  0  0  0  0  0  0  0  0  0
   -4.8586    1.4444   -0.1875 C   0  0  0  0  0  0  0  0  0  0  0  0
   -5.7971    2.4394   -0.4439 O   0  0  0  0  0  0  0  0  0  0  0  0
   -5.2821    0.1314    0.0585 C   0  0  0  0  0  0  0  0  0  0  0  0
   -6.6485   -0.1655    0.0426 O   0  0  0  0  0  0  0  0  0  0  0  0
   -4.3292   -0.8681    0.3311 C   0  0  0  0  0  0  0  0  0  0  0  0
   -2.9603   -0.5591    0.3518 C   0  0  0  0  0  0  0  0  0  0  0  0
   -1.9640   -1.6566    0.6589 C   0  0  0  0  0  0  0  0  0  0  0  0
   -0.5789   -1.1510    0.8097 N   0  0  0  0  0  0  0  0  0  0  0  0
    0.3686   -2.2804    0.8466 C   0  0  0  0  0  0  0  0  0  0  0  0
    1.7281   -1.7788    1.3096 C   0  0  0  0  0  0  0  0  0  0  0  0
    7.4328    0.6225   -0.3352 H   0  0  0  0  0  0  0  0  0  0  0  0
    6.3736    0.1278    1.0573 H   0  0  0  0  0  0  0  0  0  0  0  0
    6.4128   -0.8651   -0.4676 H   0  0  0  0  0  0  0  0  0  0  0  0
    4.2661   -0.9873    0.9153 H   0  0  0  0  0  0  0  0  0  0  0  0
    1.0683    1.6991   -1.7688 H   0  0  0  0  0  0  0  0  0  0  0  0
    2.9392    3.0202   -2.5747 H   0  0  0  0  0  0  0  0  0  0  0  0
   -0.4881   -0.5864   -1.2503 H   0  0  0  0  0  0  0  0  0  0  0  0
   -0.9110    1.8315   -0.7897 H   0  0  0  0  0  0  0  0  0  0  0  0
   -0.7932    1.5506    0.9771 H   0  0  0  0  0  0  0  0  0  0  0  0
   -3.1664    2.7614   -0.4018 H   0  0  0  0  0  0  0  0  0  0  0  0
   -5.5076    3.4013   -0.5811 H   0  0  0  0  0  0  0  0  0  0  0  0
   -6.9802   -1.1114    0.1906 H   0  0  0  0  0  0  0  0  0  0  0  0
   -4.6594   -1.8763    0.5444 H   0  0  0  0  0  0  0  0  0  0  0  0
   -2.0344   -2.4509   -0.1395 H   0  0  0  0  0  0  0  0  0  0  0  0
   -2.2634   -2.1228    1.6384 H   0  0  0  0  0  0  0  0  0  0  0  0
    0.4556   -2.7568   -0.1523 H   0  0  0  0  0  0  0  0  0  0  0  0
    0.0178   -3.0549    1.5669 H   0  0  0  0  0  0  0  0  0  0  0  0
    1.6589   -1.4116    2.3632 H   0  0  0  0  0  0  0  0  0  0  0  0
    2.4532   -2.6237    1.2725 H   0  0  0  0  0  0  0  0  0  0  0  0
  1  2  1  0
  2  3  1  0
  3  4  2  0
  4  5  1  0
  5  6  2  0
  6  7  1  0
  7  8  2  0
  8  9  1  0
  6 10  1  0
 10 11  1  0
 11 12  1  0
 12 13  2  0
 13 14  1  0
 14 15  1  0
 14 16  2  0
 16 17  1  0
 16 18  1  0
 18 19  2  0
 19 20  1  0
 20 21  1  0
 21 22  1  0
 22 23  1  0
  8  3  1  0
 21 10  1  0
 23  5  1  0
 19 12  1  0
  1 24  1  0
  1 25  1  0
  1 26  1  0
  4 27  1  0
  7 28  1  0
  9 29  1  0
 10 30  1  6
 11 31  1  0
 11 32  1  0
 13 33  1  0
 15 34  1  0
 17 35  1  0
 18 36  1  0
 20 37  1  0
 20 38  1  0
 22 39  1  0
 22 40  1  0
 23 41  1  0
 23 42  1  0
M  END

     RDKit          3D

 32 34  0  0  0  0  0  0  0  0999 V2000
   -5.0678   -1.7482   -0.1464 C   0  0  0  0  0  0  0  0  0  0  0  0
   -4.0201   -0.9426    0.0185 C   0  0  0  0  0  0  0  0  0  0  0  0
   -2.6591   -1.5152    0.3180 C   0  0  0  0  0  0  0  0  0  0  0  0
   -1.5315   -0.5415    0.0585 C   0  0  0  0  0  0  0  0  0  0  0  0
   -0.2257   -1.0385    0.0433 C   0  0  0  0  0  0  0  0  0  0  0  0
    0.8688   -0.1838   -0.1212 C   0  0  0  0  0  0  0  0  0  0  0  0
    2.1644   -0.7232   -0.1420 C   0  0  0  0  0  0  0  0  0  0  0  0
    3.2797    0.1064   -0.3269 C   0  0  0  0  0  0  0  0  0  0  0  0
    4.5908   -0.3918   -0.3751 O   0  0  0  0  0  0  0  0  0  0  0  0
    4.9350   -1.7688   -0.2576 C   0  0  0  0  0  0  0  0  0  0  0  0
    3.0907    1.4818   -0.4530 C   0  0  0  0  0  0  0  0  0  0  0  0
    1.8145    2.0501   -0.3883 C   0  0  0  0  0  0  0  0  0  0  0  0
    1.7492    3.4455   -0.3739 O   0  0  0  0  0  0  0  0  0  0  0  0
    0.6680    1.2115   -0.2870 C   0  0  0  0  0  0  0  0  0  0  0  0
   -0.6610    1.6975   -0.4020 C   0  0  0  0  0  0  0  0  0  0  0  0
   -0.8775    2.9911   -0.8844 O   0  0  0  0  0  0  0  0  0  0  0  0
   -1.7567    0.8385   -0.1197 C   0  0  0  0  0  0  0  0  0  0  0  0
   -3.1494    1.3340    0.0102 C   0  0  0  0  0  0  0  0  0  0  0  0
   -3.3937    2.5514    0.2168 O   0  0  0  0  0  0  0  0  0  0  0  0
   -4.2144    0.4374   -0.0286 O   0  0  0  0  0  0  0  0  0  0  0  0
   -4.9589   -2.8244   -0.0902 H   0  0  0  0  0  0  0  0  0  0  0  0
   -6.0497   -1.3349   -0.3391 H   0  0  0  0  0  0  0  0  0  0  0  0
   -2.5001   -2.4237   -0.3046 H   0  0  0  0  0  0  0  0  0  0  0  0
   -2.6292   -1.8170    1.3866 H   0  0  0  0  0  0  0  0  0  0  0  0
   -0.0636   -2.1027    0.1801 H   0  0  0  0  0  0  0  0  0  0  0  0
    2.2973   -1.7914   -0.0269 H   0  0  0  0  0  0  0  0  0  0  0  0
    6.0372   -1.8742   -0.3271 H   0  0  0  0  0  0  0  0  0  0  0  0
    4.4689   -2.3497   -1.0819 H   0  0  0  0  0  0  0  0  0  0  0  0
    4.6016   -2.1636    0.7259 H   0  0  0  0  0  0  0  0  0  0  0  0
    3.9550    2.1266   -0.5566 H   0  0  0  0  0  0  0  0  0  0  0  0
    0.9895    3.9645    0.0435 H   0  0  0  0  0  0  0  0  0  0  0  0
   -1.7519    3.2990   -1.2857 H   0  0  0  0  0  0  0  0  0  0  0  0
  1  2  2  3
  2  3  1  0
  3  4  1  0
  4  5  2  0
  5  6  1  0
  6  7  2  0
  7  8  1  0
  8  9  1  0
  9 10  1  0
  8 11  2  0
 11 12  1  0
 12 13  1  0
 12 14  2  0
 14 15  1  0
 15 16  1  0
 15 17  2  0
 17 18  1  0
 18 19  2  0
 18 20  1  0
 20  2  1  0
 17  4  1  0
 14  6  1  0
  1 21  1  0
  1 22  1  0
  3 23  1  0
  3 24  1  0
  5 25  1  0
  7 26  1  0
 10 27  1  0
 10 28  1  0
 10 29  1  0
 11 30  1  0
 13 31  1  0
 16 32  1  0
M  END

     RDKit          3D

 29 31  0  0  0  0  0  0  0  0999 V2000
    4.5635   -0.2534   -0.9298 C   0  0  0  0  0  0  0  0  0  0  0  0
    3.9379    0.3154    0.3408 C   0  0  1  0  0  0  0  0  0  0  0  0
    4.3169    1.6589    0.4852 O   0  0  0  0  0  0  0  0  0  0  0  0
    2.4416    0.2007    0.2780 C   0  0  0  0  0  0  0  0  0  0  0  0
    1.5937    1.0075   -0.4734 C   0  0  0  0  0  0  0  0  0  0  0  0
    0.3345    0.5080   -0.2248 C   0  0  0  0  0  0  0  0  0  0  0  0
    0.4864   -0.5459    0.6240 C   0  0  0  0  0  0  0  0  0  0  0  0
    1.7517   -0.7222    0.9198 O   0  0  0  0  0  0  0  0  0  0  0  0
   -0.6534   -1.3358    1.0802 C   0  0  0  0  0  0  0  0  0  0  0  0
   -0.4756   -2.3227    1.8437 O   0  0  0  0  0  0  0  0  0  0  0  0
   -2.0146   -0.9369    0.6193 C   0  0  0  0  0  0  0  0  0  0  0  0
   -3.1296   -1.6865    1.0258 C   0  0  0  0  0  0  0  0  0  0  0  0
   -4.4095   -1.3301    0.6125 C   0  0  0  0  0  0  0  0  0  0  0  0
   -4.6009   -0.2026   -0.1807 C   0  0  0  0  0  0  0  0  0  0  0  0
   -3.5183    0.5876   -0.5810 C   0  0  0  0  0  0  0  0  0  0  0  0
   -3.8179    1.7523   -1.2918 O   0  0  0  0  0  0  0  0  0  0  0  0
   -2.1931    0.2012   -0.2322 C   0  0  0  0  0  0  0  0  0  0  0  0
   -0.9732    0.9100   -0.7493 C   0  0  0  0  0  0  0  0  0  0  0  0
   -1.0297    1.7764   -1.6605 O   0  0  0  0  0  0  0  0  0  0  0  0
    5.6704   -0.1888   -0.8645 H   0  0  0  0  0  0  0  0  0  0  0  0
    4.2794   -1.3207   -1.0535 H   0  0  0  0  0  0  0  0  0  0  0  0
    4.2254    0.3183   -1.8210 H   0  0  0  0  0  0  0  0  0  0  0  0
    4.3130   -0.2766    1.2074 H   0  0  0  0  0  0  0  0  0  0  0  0
    4.1025    1.9170    1.4201 H   0  0  0  0  0  0  0  0  0  0  0  0
    1.8630    1.8354   -1.1161 H   0  0  0  0  0  0  0  0  0  0  0  0
   -3.0111   -2.5561    1.6602 H   0  0  0  0  0  0  0  0  0  0  0  0
   -5.2614   -1.9204    0.9252 H   0  0  0  0  0  0  0  0  0  0  0  0
   -5.6071    0.0795   -0.4644 H   0  0  0  0  0  0  0  0  0  0  0  0
   -3.1846    2.5305   -1.3992 H   0  0  0  0  0  0  0  0  0  0  0  0
  1  2  1  0
  2  3  1  0
  2  4  1  0
  4  5  2  0
  5  6  1  0
  6  7  2  0
  7  8  1  0
  7  9  1  0
  9 10  2  0
  9 11  1  0
 11 12  2  0
 12 13  1  0
 13 14  2  0
 14 15  1  0
 15 16  1  0
 15 17  2  0
 17 18  1  0
 18 19  2  0
  8  4  1  0
 17 11  1  0
 18  6  1  0
  1 20  1  0
  1 21  1  0
  1 22  1  0
  2 23  1  1
  3 24  1  0
  5 25  1  0
 12 26  1  0
 13 27  1  0
 14 28  1  0
 16 29  1  0
M  END

     RDKit          3D

 41 42  0  0  0  0  0  0  0  0999 V2000
    3.3442    0.1199   -1.7381 C   0  0  0  0  0  0  0  0  0  0  0  0
    3.2117    0.0735   -0.3999 C   0  0  0  0  0  0  0  0  0  0  0  0
    4.4392    0.2776    0.4570 C   0  0  0  0  0  0  0  0  0  0  0  0
    1.8671   -0.2189    0.2578 C   0  0  2  0  0  0  0  0  0  0  0  0
    1.4321   -1.6713   -0.0108 C   0  0  0  0  0  0  0  0  0  0  0  0
    0.0840   -1.9846    0.6596 C   0  0  0  0  0  0  0  0  0  0  0  0
   -1.0449   -1.0124    0.2060 C   0  0  1  0  0  0  0  0  0  0  0  0
   -1.3686   -1.2828   -1.2911 C   0  0  0  0  0  0  0  0  0  0  0  0
   -2.3181   -1.3017    0.9966 C   0  0  0  0  0  0  0  0  0  0  0  0
   -2.6264   -2.4540    1.2770 O   0  0  0  0  0  0  0  0  0  0  0  0
   -3.2113   -0.1731    1.4451 C   0  0  0  0  0  0  0  0  0  0  0  0
   -3.1613    0.9952    0.4537 C   0  0  0  0  0  0  0  0  0  0  0  0
   -1.7257    1.5216    0.1687 C   0  0  2  0  0  0  0  0  0  0  0  0
   -1.6541    2.1116   -1.2520 C   0  0  0  0  0  0  0  0  0  0  0  0
   -0.5926    0.4734    0.5196 C   0  0  1  0  0  0  0  0  0  0  0  0
   -0.3749    0.5477    1.9187 O   0  0  0  0  0  0  0  0  0  0  0  0
    0.7718    0.7834   -0.1765 C   0  0  0  0  0  0  0  0  0  0  0  0
    4.3131    0.3063   -2.1957 H   0  0  0  0  0  0  0  0  0  0  0  0
    2.4977   -0.0538   -2.3970 H   0  0  0  0  0  0  0  0  0  0  0  0
    4.8257    1.3161    0.3353 H   0  0  0  0  0  0  0  0  0  0  0  0
    5.2309   -0.4429    0.1541 H   0  0  0  0  0  0  0  0  0  0  0  0
    4.2319    0.0929    1.5325 H   0  0  0  0  0  0  0  0  0  0  0  0
    1.9950   -0.1125    1.3566 H   0  0  0  0  0  0  0  0  0  0  0  0
    1.3669   -1.8638   -1.1059 H   0  0  0  0  0  0  0  0  0  0  0  0
    2.1983   -2.3670    0.3990 H   0  0  0  0  0  0  0  0  0  0  0  0
    0.2117   -1.9384    1.7628 H   0  0  0  0  0  0  0  0  0  0  0  0
   -0.1919   -3.0337    0.4238 H   0  0  0  0  0  0  0  0  0  0  0  0
   -1.4535   -2.3688   -1.4878 H   0  0  0  0  0  0  0  0  0  0  0  0
   -0.5975   -0.8861   -1.9771 H   0  0  0  0  0  0  0  0  0  0  0  0
   -2.3394   -0.8470   -1.5872 H   0  0  0  0  0  0  0  0  0  0  0  0
   -4.2598   -0.5328    1.5212 H   0  0  0  0  0  0  0  0  0  0  0  0
   -2.8963    0.1691    2.4546 H   0  0  0  0  0  0  0  0  0  0  0  0
   -3.7793    1.8264    0.8569 H   0  0  0  0  0  0  0  0  0  0  0  0
   -3.6542    0.6668   -0.4847 H   0  0  0  0  0  0  0  0  0  0  0  0
   -1.5790    2.4026    0.8318 H   0  0  0  0  0  0  0  0  0  0  0  0
   -2.5110    2.7976   -1.4229 H   0  0  0  0  0  0  0  0  0  0  0  0
   -1.6878    1.3236   -2.0299 H   0  0  0  0  0  0  0  0  0  0  0  0
   -0.7290    2.7105   -1.3833 H   0  0  0  0  0  0  0  0  0  0  0  0
   -0.0337    1.4549    2.1375 H   0  0  0  0  0  0  0  0  0  0  0  0
    0.6654    0.7672   -1.2765 H   0  0  0  0  0  0  0  0  0  0  0  0
    1.1033    1.8080    0.0906 H   0  0  0  0  0  0  0  0  0  0  0  0
  1  2  2  3
  2  3  1  0
  2  4  1  0
  4  5  1  0
  5  6  1  0
  6  7  1  0
  7  8  1  6
  7  9  1  0
  9 10  2  0
  9 11  1  0
 11 12  1  0
 12 13  1  0
 13 14  1  0
 13 15  1  0
 15 16  1  1
 15 17  1  0
 17  4  1  0
 15  7  1  0
  1 18  1  0
  1 19  1  0
  3 20  1  0
  3 21  1  0
  3 22  1  0
  4 23  1  1
  5 24  1  0
  5 25  1  0
  6 26  1  0
  6 27  1  0
  8 28  1  0
  8 29  1  0
  8 30  1  0
 11 31  1  0
 11 32  1  0
 12 33  1  0
 12 34  1  0
 13 35  1  1
 14 36  1  0
 14 37  1  0
 14 38  1  0
 16 39  1  0
 17 40  1  0
 17 41  1  0
M  END

     RDKit          3D

 60 65  0  0  0  0  0  0  0  0999 V2000
    5.5991   -0.0634    3.5187 O   0  0  0  0  0  0  0  0  0  0  0  0
    4.4025   -0.1522    3.1335 C   0  0  0  0  0  0  0  0  0  0  0  0
    3.5451   -1.2836    3.6291 C   0  0  0  0  0  0  0  0  0  0  0  0
    2.5492   -1.7090    2.5330 C   0  0  2  0  0  0  0  0  0  0  0  0
    3.1691   -2.3853    1.3109 C   0  0  0  0  0  0  0  0  0  0  0  0
    2.3781   -2.5292    0.1539 C   0  0  0  0  0  0  0  0  0  0  0  0
    2.8954   -3.1306   -0.9967 C   0  0  0  0  0  0  0  0  0  0  0  0
    4.2038   -3.6177   -1.0080 C   0  0  0  0  0  0  0  0  0  0  0  0
    4.7100   -4.2069   -2.1644 O   0  0  0  0  0  0  0  0  0  0  0  0
    4.9922   -3.5110    0.1429 C   0  0  0  0  0  0  0  0  0  0  0  0
    4.4808   -2.9079    1.2958 C   0  0  0  0  0  0  0  0  0  0  0  0
    1.8274   -0.5479    2.1102 O   0  0  0  0  0  0  0  0  0  0  0  0
    2.4815    0.6525    1.7920 C   0  0  0  0  0  0  0  0  0  0  0  0
    3.7996    0.8710    2.2429 C   0  0  0  0  0  0  0  0  0  0  0  0
    4.4734    2.0531    1.8719 C   0  0  0  0  0  0  0  0  0  0  0  0
    5.7791    2.2927    2.2996 O   0  0  0  0  0  0  0  0  0  0  0  0
    3.8226    3.0010    1.0682 C   0  0  0  0  0  0  0  0  0  0  0  0
    2.5004    2.7992    0.6544 C   0  0  0  0  0  0  0  0  0  0  0  0
    1.8567    3.7602   -0.1246 O   0  0  0  0  0  0  0  0  0  0  0  0
    1.8222    1.6272    1.0262 C   0  0  0  0  0  0  0  0  0  0  0  0
    0.4069    1.4350    0.6503 C   0  0  0  0  0  0  0  0  0  0  0  0
   -0.5960    1.8471    1.5388 C   0  0  0  0  0  0  0  0  0  0  0  0
   -0.2525    2.4457    2.7507 O   0  0  0  0  0  0  0  0  0  0  0  0
   -1.9371    1.6535    1.2131 C   0  0  0  0  0  0  0  0  0  0  0  0
   -2.2957    1.0852   -0.0081 C   0  0  0  0  0  0  0  0  0  0  0  0
   -3.5866    0.9569   -0.2879 O   0  0  0  0  0  0  0  0  0  0  0  0
   -4.0476    0.4660   -1.4333 C   0  0  0  0  0  0  0  0  0  0  0  0
   -5.5230    0.3917   -1.6266 C   0  0  0  0  0  0  0  0  0  0  0  0
   -6.3651    1.1599   -0.7985 C   0  0  0  0  0  0  0  0  0  0  0  0
   -7.7533    1.1225   -0.9596 C   0  0  0  0  0  0  0  0  0  0  0  0
   -8.3247    0.3217   -1.9498 C   0  0  0  0  0  0  0  0  0  0  0  0
   -9.7099    0.3075   -2.1101 O   0  0  0  0  0  0  0  0  0  0  0  0
   -7.5036   -0.4599   -2.7698 C   0  0  0  0  0  0  0  0  0  0  0  0
   -6.1139   -0.4328   -2.6086 C   0  0  0  0  0  0  0  0  0  0  0  0
   -3.1350    0.0719   -2.4225 C   0  0  0  0  0  0  0  0  0  0  0  0
   -1.7628    0.1849   -2.1834 C   0  0  0  0  0  0  0  0  0  0  0  0
   -0.9708   -0.1187   -3.1140 O   0  0  0  0  0  0  0  0  0  0  0  0
   -1.3023    0.6720   -0.9336 C   0  0  0  0  0  0  0  0  0  0  0  0
    0.0723    0.8124   -0.5703 C   0  0  0  0  0  0  0  0  0  0  0  0
    1.1298    0.3412   -1.3564 O   0  0  0  0  0  0  0  0  0  0  0  0
    2.9705   -0.9165    4.5057 H   0  0  0  0  0  0  0  0  0  0  0  0
    4.1550   -2.1411    3.9874 H   0  0  0  0  0  0  0  0  0  0  0  0
    1.8255   -2.4248    2.9808 H   0  0  0  0  0  0  0  0  0  0  0  0
    1.3581   -2.1658    0.1375 H   0  0  0  0  0  0  0  0  0  0  0  0
    2.2776   -3.2157   -1.8827 H   0  0  0  0  0  0  0  0  0  0  0  0
    5.6569   -4.5638   -2.2037 H   0  0  0  0  0  0  0  0  0  0  0  0
    6.0047   -3.8958    0.1458 H   0  0  0  0  0  0  0  0  0  0  0  0
    5.1291   -2.8503    2.1566 H   0  0  0  0  0  0  0  0  0  0  0  0
    6.2742    3.1408    2.0492 H   0  0  0  0  0  0  0  0  0  0  0  0
    4.3419    3.9065    0.7807 H   0  0  0  0  0  0  0  0  0  0  0  0
    2.3227    4.6129   -0.4089 H   0  0  0  0  0  0  0  0  0  0  0  0
   -0.9561    2.7510    3.4119 H   0  0  0  0  0  0  0  0  0  0  0  0
   -2.7100    1.9676    1.9032 H   0  0  0  0  0  0  0  0  0  0  0  0
   -5.9503    1.8021   -0.0316 H   0  0  0  0  0  0  0  0  0  0  0  0
   -8.3836    1.7267   -0.3192 H   0  0  0  0  0  0  0  0  0  0  0  0
  -10.1516   -0.2156   -2.8546 H   0  0  0  0  0  0  0  0  0  0  0  0
   -7.9405   -1.0936   -3.5311 H   0  0  0  0  0  0  0  0  0  0  0  0
   -5.5176   -1.0725   -3.2440 H   0  0  0  0  0  0  0  0  0  0  0  0
   -3.4667   -0.2787   -3.3900 H   0  0  0  0  0  0  0  0  0  0  0  0
    1.0427   -0.3492   -2.0883 H   0  0  0  0  0  0  0  0  0  0  0  0
  1  2  2  0
  2  3  1  0
  3  4  1  0
  4  5  1  0
  5  6  2  0
  6  7  1  0
  7  8  2  0
  8  9  1  0
  8 10  1  0
 10 11  2  0
  4 12  1  0
 12 13  1  0
 13 14  2  0
 14 15  1  0
 15 16  1  0
 15 17  2  0
 17 18  1  0
 18 19  1  0
 18 20  2  0
 20 21  1  0
 21 22  2  0
 22 23  1  0
 22 24  1  0
 24 25  2  0
 25 26  1  0
 26 27  1  0
 27 28  1  0
 28 29  2  0
 29 30  1  0
 30 31  2  0
 31 32  1  0
 31 33  1  0
 33 34  2  0
 27 35  2  0
 35 36  1  0
 36 37  2  0
 36 38  1  0
 38 39  2  0
 39 40  1  0
 14  2  1  0
 39 21  1  0
 11  5  1  0
 20 13  1  0
 38 25  1  0
 34 28  1  0
  3 41  1  0
  3 42  1  0
  4 43  1  1
  6 44  1  0
  7 45  1  0
  9 46  1  0
 10 47  1  0
 11 48  1  0
 16 49  1  0
 17 50  1  0
 19 51  1  0
 23 52  1  0
 24 53  1  0
 29 54  1  0
 30 55  1  0
 32 56  1  0
 33 57  1  0
 34 58  1  0
 35 59  1  0
 40 60  1  0
M  END

     RDKit          3D

 83 87  0  0  0  0  0  0  0  0999 V2000
   -5.9734   -1.4093   -1.6011 C   0  0  0  0  0  0  0  0  0  0  0  0
   -4.9876   -0.2812   -1.2119 C   0  0  1  0  0  0  0  0  0  0  0  0
   -5.7813    1.0182   -0.8875 C   0  0  2  0  0  0  0  0  0  0  0  0
   -6.5937    1.3553   -1.9820 O   0  0  0  0  0  0  0  0  0  0  0  0
   -4.8370    2.1951   -0.5893 C   0  0  0  0  0  0  0  0  0  0  0  0
   -3.8239    1.8621    0.5105 C   0  0  0  0  0  0  0  0  0  0  0  0
   -2.9944    0.6043    0.1155 C   0  0  1  0  0  0  0  0  0  0  0  0
   -1.6506    0.3412    0.9339 C   0  0  2  0  0  0  0  0  0  0  0  0
   -1.9910    0.1040    2.4474 C   0  0  0  0  0  0  0  0  0  0  0  0
   -0.6404    1.5597    0.8914 C   0  0  0  0  0  0  0  0  0  0  0  0
    0.4491    1.5259   -0.1974 C   0  0  0  0  0  0  0  0  0  0  0  0
    1.2952    0.1895   -0.3654 C   0  0  1  0  0  0  0  0  0  0  0  0
    1.3248   -0.0717   -1.9261 C   0  0  0  0  0  0  0  0  0  0  0  0
    2.8019    0.3331    0.1126 C   0  0  2  0  0  0  0  0  0  0  0  0
    3.5978    1.4286   -0.6862 C   0  0  0  0  0  0  0  0  0  0  0  0
    5.1061    1.5158   -0.3374 C   0  0  0  0  0  0  0  0  0  0  0  0
    5.7609    2.5638   -1.2693 C   0  0  0  0  0  0  0  0  0  0  0  0
    5.2999    2.0093    1.1143 C   0  0  0  0  0  0  0  0  0  0  0  0
    5.8031    0.1380   -0.5515 C   0  0  0  0  0  0  0  0  0  0  0  0
    4.8330   -1.0405   -0.7622 C   0  0  0  0  0  0  0  0  0  0  0  0
    3.5948   -1.0667    0.1939 C   0  0  1  0  0  0  0  0  0  0  0  0
    4.1461   -1.3129    1.6488 C   0  0  0  0  0  0  0  0  0  0  0  0
    2.7433   -2.3368   -0.2540 C   0  0  0  0  0  0  0  0  0  0  0  0
    1.1930   -2.3330   -0.1071 C   0  0  0  0  0  0  0  0  0  0  0  0
    0.5992   -1.0107    0.4402 C   0  0  1  0  0  0  0  0  0  0  0  0
    0.8652   -1.0465    1.9796 C   0  0  0  0  0  0  0  0  0  0  0  0
   -0.9628   -0.8878    0.2121 C   0  0  1  0  0  0  0  0  0  0  0  0
   -1.8321   -2.1618    0.2747 C   0  0  0  0  0  0  0  0  0  0  0  0
   -3.1427   -1.9236   -0.5041 C   0  0  0  0  0  0  0  0  0  0  0  0
   -3.9576   -0.6605   -0.0655 C   0  0  2  0  0  0  0  0  0  0  0  0
   -4.7469   -1.0441    1.2260 C   0  0  0  0  0  0  0  0  0  0  0  0
   -5.4526   -2.3696   -1.7941 H   0  0  0  0  0  0  0  0  0  0  0  0
   -6.4954   -1.1446   -2.5479 H   0  0  0  0  0  0  0  0  0  0  0  0
   -6.7502   -1.5605   -0.8222 H   0  0  0  0  0  0  0  0  0  0  0  0
   -4.3955   -0.0723   -2.1339 H   0  0  0  0  0  0  0  0  0  0  0  0
   -6.4300    0.8351    0.0005 H   0  0  0  0  0  0  0  0  0  0  0  0
   -7.2413    2.0394   -1.6612 H   0  0  0  0  0  0  0  0  0  0  0  0
   -5.4350    3.0760   -0.2782 H   0  0  0  0  0  0  0  0  0  0  0  0
   -4.2951    2.4677   -1.5184 H   0  0  0  0  0  0  0  0  0  0  0  0
   -3.2033    2.7622    0.6325 H   0  0  0  0  0  0  0  0  0  0  0  0
   -4.3561    1.7362    1.4725 H   0  0  0  0  0  0  0  0  0  0  0  0
   -2.6237    0.8508   -0.9069 H   0  0  0  0  0  0  0  0  0  0  0  0
   -2.8511    0.7212    2.7750 H   0  0  0  0  0  0  0  0  0  0  0  0
   -1.1665    0.3801    3.1357 H   0  0  0  0  0  0  0  0  0  0  0  0
   -2.2040   -0.9422    2.7098 H   0  0  0  0  0  0  0  0  0  0  0  0
   -0.1018    1.6944    1.8489 H   0  0  0  0  0  0  0  0  0  0  0  0
   -1.1619    2.5226    0.7922 H   0  0  0  0  0  0  0  0  0  0  0  0
   -0.0919    1.7790   -1.1384 H   0  0  0  0  0  0  0  0  0  0  0  0
    1.1017    2.3964   -0.0082 H   0  0  0  0  0  0  0  0  0  0  0  0
    0.4018   -0.5135   -2.3393 H   0  0  0  0  0  0  0  0  0  0  0  0
    1.4714    0.8738   -2.4930 H   0  0  0  0  0  0  0  0  0  0  0  0
    2.1520   -0.7285   -2.2457 H   0  0  0  0  0  0  0  0  0  0  0  0
    2.7294    0.7640    1.1307 H   0  0  0  0  0  0  0  0  0  0  0  0
    3.5343    1.2337   -1.7738 H   0  0  0  0  0  0  0  0  0  0  0  0
    3.1578    2.4327   -0.5258 H   0  0  0  0  0  0  0  0  0  0  0  0
    5.6315    2.2800   -2.3359 H   0  0  0  0  0  0  0  0  0  0  0  0
    6.8511    2.6448   -1.0658 H   0  0  0  0  0  0  0  0  0  0  0  0
    5.3052    3.5657   -1.1236 H   0  0  0  0  0  0  0  0  0  0  0  0
    4.8086    2.9940    1.2645 H   0  0  0  0  0  0  0  0  0  0  0  0
    6.3800    2.1265    1.3470 H   0  0  0  0  0  0  0  0  0  0  0  0
    4.8761    1.3054    1.8524 H   0  0  0  0  0  0  0  0  0  0  0  0
    6.5056   -0.0864    0.2793 H   0  0  0  0  0  0  0  0  0  0  0  0
    6.4607    0.1663   -1.4511 H   0  0  0  0  0  0  0  0  0  0  0  0
    4.4890   -0.9948   -1.8186 H   0  0  0  0  0  0  0  0  0  0  0  0
    5.4067   -1.9882   -0.6651 H   0  0  0  0  0  0  0  0  0  0  0  0
    5.2275   -1.1036    1.7514 H   0  0  0  0  0  0  0  0  0  0  0  0
    4.0324   -2.3661    1.9823 H   0  0  0  0  0  0  0  0  0  0  0  0
    3.6573   -0.6850    2.4195 H   0  0  0  0  0  0  0  0  0  0  0  0
    2.9429   -2.5747   -1.3210 H   0  0  0  0  0  0  0  0  0  0  0  0
    3.1264   -3.2557    0.2402 H   0  0  0  0  0  0  0  0  0  0  0  0
    0.7483   -2.5618   -1.1008 H   0  0  0  0  0  0  0  0  0  0  0  0
    0.8925   -3.1858    0.5429 H   0  0  0  0  0  0  0  0  0  0  0  0
    1.0445   -0.0525    2.4249 H   0  0  0  0  0  0  0  0  0  0  0  0
    1.7131   -1.6913    2.2597 H   0  0  0  0  0  0  0  0  0  0  0  0
    0.0342   -1.5496    2.5112 H   0  0  0  0  0  0  0  0  0  0  0  0
   -1.0323   -0.6496   -0.8611 H   0  0  0  0  0  0  0  0  0  0  0  0
   -1.3247   -3.0095   -0.2276 H   0  0  0  0  0  0  0  0  0  0  0  0
   -2.0269   -2.5075    1.3054 H   0  0  0  0  0  0  0  0  0  0  0  0
   -3.7579   -2.8447   -0.4001 H   0  0  0  0  0  0  0  0  0  0  0  0
   -2.8876   -1.8410   -1.5842 H   0  0  0  0  0  0  0  0  0  0  0  0
   -4.1057   -1.4930    1.9952 H   0  0  0  0  0  0  0  0  0  0  0  0
   -5.4958   -1.8326    1.0134 H   0  0  0  0  0  0  0  0  0  0  0  0
   -5.2930   -0.2001    1.6818 H   0  0  0  0  0  0  0  0  0  0  0  0
  1  2  1  0
  2  3  1  0
  3  4  1  0
  3  5  1  0
  5  6  1  0
  6  7  1  0
  7  8  1  0
  8  9  1  1
  8 10  1  0
 10 11  1  0
 11 12  1  0
 12 13  1  6
 12 14  1  0
 14 15  1  0
 15 16  1  0
 16 17  1  0
 16 18  1  0
 16 19  1  0
 19 20  1  0
 20 21  1  0
 21 22  1  1
 21 23  1  0
 23 24  1  0
 24 25  1  0
 25 26  1  1
 25 27  1  0
 27 28  1  0
 28 29  1  0
 29 30  1  0
 30 31  1  1
 30  2  1  0
 30  7  1  0
 27  8  1  0
 25 12  1  0
 21 14  1  0
  1 32  1  0
  1 33  1  0
  1 34  1  0
  2 35  1  6
  3 36  1  1
  4 37  1  0
  5 38  1  0
  5 39  1  0
  6 40  1  0
  6 41  1  0
  7 42  1  6
  9 43  1  0
  9 44  1  0
  9 45  1  0
 10 46  1  0
 10 47  1  0
 11 48  1  0
 11 49  1  0
 13 50  1  0
 13 51  1  0
 13 52  1  0
 14 53  1  1
 15 54  1  0
 15 55  1  0
 17 56  1  0
 17 57  1  0
 17 58  1  0
 18 59  1  0
 18 60  1  0
 18 61  1  0
 19 62  1  0
 19 63  1  0
 20 64  1  0
 20 65  1  0
 22 66  1  0
 22 67  1  0
 22 68  1  0
 23 69  1  0
 23 70  1  0
 24 71  1  0
 24 72  1  0
 26 73  1  0
 26 74  1  0
 26 75  1  0
 27 76  1  6
 28 77  1  0
 28 78  1  0
 29 79  1  0
 29 80  1  0
 31 81  1  0
 31 82  1  0
 31 83  1  0
M  END

     RDKit          3D

 33 36  0  0  0  0  0  0  0  0999 V2000
   -2.1306   -3.3721   -0.7131 C   0  0  0  0  0  0  0  0  0  0  0  0
   -2.5123   -1.9491   -0.4185 C   0  0  0  0  0  0  0  0  0  0  0  0
   -3.8355   -1.6433   -0.3614 N   0  0  0  0  0  0  0  0  0  0  0  0
   -4.2828   -0.3909   -0.1026 C   0  0  0  0  0  0  0  0  0  0  0  0
   -3.3821    0.6468    0.1180 C   0  0  0  0  0  0  0  0  0  0  0  0
   -1.9956    0.4019    0.0738 C   0  0  0  0  0  0  0  0  0  0  0  0
   -1.0490    1.4512    0.2969 C   0  0  0  0  0  0  0  0  0  0  0  0
   -1.4981    2.8646    0.5886 C   0  0  0  0  0  0  0  0  0  0  0  0
    0.3168    1.1166    0.2342 C   0  0  0  0  0  0  0  0  0  0  0  0
    1.3882    1.9322    0.4094 N   0  0  0  0  0  0  0  0  0  0  0  0
    2.4681    1.1386    0.2496 C   0  0  0  0  0  0  0  0  0  0  0  0
    3.8085    1.5134    0.3342 C   0  0  0  0  0  0  0  0  0  0  0  0
    4.7848    0.5200    0.1322 C   0  0  0  0  0  0  0  0  0  0  0  0
    4.4058   -0.8123   -0.1469 C   0  0  0  0  0  0  0  0  0  0  0  0
    3.0466   -1.1659   -0.2273 C   0  0  0  0  0  0  0  0  0  0  0  0
    2.1031   -0.1600   -0.0226 C   0  0  0  0  0  0  0  0  0  0  0  0
    0.7272   -0.1739   -0.0324 C   0  0  0  0  0  0  0  0  0  0  0  0
   -0.1637   -1.2129   -0.2532 C   0  0  0  0  0  0  0  0  0  0  0  0
   -1.5478   -0.9335   -0.2021 C   0  0  0  0  0  0  0  0  0  0  0  0
   -1.5424   -3.7895    0.1311 H   0  0  0  0  0  0  0  0  0  0  0  0
   -3.0370   -4.0000   -0.8485 H   0  0  0  0  0  0  0  0  0  0  0  0
   -1.5334   -3.4188   -1.6479 H   0  0  0  0  0  0  0  0  0  0  0  0
   -5.3471   -0.1995   -0.0680 H   0  0  0  0  0  0  0  0  0  0  0  0
   -3.7841    1.6299    0.3209 H   0  0  0  0  0  0  0  0  0  0  0  0
   -2.1031    3.2461   -0.2605 H   0  0  0  0  0  0  0  0  0  0  0  0
   -0.6608    3.5698    0.7387 H   0  0  0  0  0  0  0  0  0  0  0  0
   -2.1110    2.8773    1.5142 H   0  0  0  0  0  0  0  0  0  0  0  0
    1.4084    2.9530    0.6220 H   0  0  0  0  0  0  0  0  0  0  0  0
    4.0911    2.5360    0.5484 H   0  0  0  0  0  0  0  0  0  0  0  0
    5.8340    0.7789    0.1913 H   0  0  0  0  0  0  0  0  0  0  0  0
    5.1666   -1.5665   -0.3002 H   0  0  0  0  0  0  0  0  0  0  0  0
    2.7485   -2.1841   -0.4407 H   0  0  0  0  0  0  0  0  0  0  0  0
    0.2184   -2.2039   -0.4577 H   0  0  0  0  0  0  0  0  0  0  0  0
  1  2  1  0
  2  3  2  0
  3  4  1  0
  4  5  2  0
  5  6  1  0
  6  7  2  0
  7  8  1  0
  7  9  1  0
  9 10  1  0
 10 11  1  0
 11 12  2  0
 12 13  1  0
 13 14  2  0
 14 15  1  0
 15 16  2  0
 16 17  1  0
 17 18  1  0
 18 19  2  0
 19  2  1  0
 19  6  1  0
 17  9  2  0
 16 11  1  0
  1 20  1  0
  1 21  1  0
  1 22  1  0
  4 23  1  0
  5 24  1  0
  8 25  1  0
  8 26  1  0
  8 27  1  0
 10 28  1  0
 12 29  1  0
 13 30  1  0
 14 31  1  0
 15 32  1  0
 18 33  1  0
M  END

     RDKit          3D

 38 40  0  0  0  0  0  0  0  0999 V2000
    5.6611    1.0470    0.3906 C   0  0  0  0  0  0  0  0  0  0  0  0
    5.1807   -0.2283   -0.0265 O   0  0  0  0  0  0  0  0  0  0  0  0
    3.8319   -0.6201   -0.1328 C   0  0  0  0  0  0  0  0  0  0  0  0
    3.5805   -1.8303   -0.7897 C   0  0  0  0  0  0  0  0  0  0  0  0
    4.6532   -2.5879   -1.2596 O   0  0  0  0  0  0  0  0  0  0  0  0
    2.2690   -2.2631   -1.0041 C   0  0  0  0  0  0  0  0  0  0  0  0
    1.1840   -1.5214   -0.5173 C   0  0  0  0  0  0  0  0  0  0  0  0
    1.4187   -0.3523    0.2378 C   0  0  0  0  0  0  0  0  0  0  0  0
    2.7447    0.1442    0.3650 C   0  0  0  0  0  0  0  0  0  0  0  0
    2.9898    1.3950    0.9354 O   0  0  0  0  0  0  0  0  0  0  0  0
    0.2609    0.2811    0.9249 C   0  0  0  0  0  0  0  0  0  0  0  0
    0.4452    0.9729    1.9633 O   0  0  0  0  0  0  0  0  0  0  0  0
   -1.1225    0.0043    0.4566 C   0  0  0  0  0  0  0  0  0  0  0  0
   -1.3442   -1.0885   -0.4052 C   0  0  0  0  0  0  0  0  0  0  0  0
   -2.6390   -1.3554   -0.8740 C   0  0  0  0  0  0  0  0  0  0  0  0
   -3.7218   -0.5526   -0.4933 C   0  0  0  0  0  0  0  0  0  0  0  0
   -5.0924   -0.8628   -1.0300 C   0  0  0  0  0  0  0  0  0  0  0  0
   -3.5080    0.5256    0.3925 C   0  0  0  0  0  0  0  0  0  0  0  0
   -4.5689    1.3100    0.8499 O   0  0  0  0  0  0  0  0  0  0  0  0
   -2.2093    0.8163    0.8485 C   0  0  0  0  0  0  0  0  0  0  0  0
   -1.9917    1.8991    1.7100 O   0  0  0  0  0  0  0  0  0  0  0  0
   -2.2212    3.2487    1.3171 C   0  0  0  0  0  0  0  0  0  0  0  0
   -0.2060   -1.9452   -0.8150 C   0  0  0  0  0  0  0  0  0  0  0  0
   -0.4196   -3.0237   -1.4336 O   0  0  0  0  0  0  0  0  0  0  0  0
    6.7631    1.0813    0.2419 H   0  0  0  0  0  0  0  0  0  0  0  0
    5.4521    1.2195    1.4687 H   0  0  0  0  0  0  0  0  0  0  0  0
    5.2080    1.8489   -0.2343 H   0  0  0  0  0  0  0  0  0  0  0  0
    4.5102   -3.4623   -1.7512 H   0  0  0  0  0  0  0  0  0  0  0  0
    2.1001   -3.1774   -1.5605 H   0  0  0  0  0  0  0  0  0  0  0  0
    2.2816    2.1089    1.0386 H   0  0  0  0  0  0  0  0  0  0  0  0
   -2.8051   -2.1866   -1.5489 H   0  0  0  0  0  0  0  0  0  0  0  0
   -5.5101    0.0346   -1.5337 H   0  0  0  0  0  0  0  0  0  0  0  0
   -5.7621   -1.1752   -0.2014 H   0  0  0  0  0  0  0  0  0  0  0  0
   -5.0614   -1.6832   -1.7770 H   0  0  0  0  0  0  0  0  0  0  0  0
   -5.5316    1.1491    0.5836 H   0  0  0  0  0  0  0  0  0  0  0  0
   -1.6311    3.4773    0.4030 H   0  0  0  0  0  0  0  0  0  0  0  0
   -1.8894    3.9226    2.1347 H   0  0  0  0  0  0  0  0  0  0  0  0
   -3.2994    3.4299    1.1260 H   0  0  0  0  0  0  0  0  0  0  0  0
  1  2  1  0
  2  3  1  0
  3  4  2  0
  4  5  1  0
  4  6  1  0
  6  7  2  0
  7  8  1  0
  8  9  2  0
  9 10  1  0
  8 11  1  0
 11 12  2  0
 11 13  1  0
 13 14  2  0
 14 15  1  0
 15 16  2  0
 16 17  1  0
 16 18  1  0
 18 19  1  0
 18 20  2  0
 20 21  1  0
 21 22  1  0
 14 23  1  0
 23 24  2  0
  9  3  1  0
 20 13  1  0
 23  7  1  0
  1 25  1  0
  1 26  1  0
  1 27  1  0
  5 28  1  0
  6 29  1  0
 10 30  1  0
 15 31  1  0
 17 32  1  0
 17 33  1  0
 17 34  1  0
 19 35  1  0
 22 36  1  0
 22 37  1  0
 22 38  1  0
M  END

     RDKit          3D

 41 43  0  0  0  0  0  0  0  0999 V2000
    5.3093    1.9253   -0.0725 C   0  0  0  0  0  0  0  0  0  0  0  0
    4.8712    0.5958    0.1918 O   0  0  0  0  0  0  0  0  0  0  0  0
    3.5281    0.2029    0.3038 C   0  0  0  0  0  0  0  0  0  0  0  0
    2.4754    1.1222    0.1770 C   0  0  0  0  0  0  0  0  0  0  0  0
    1.1423    0.7217    0.3623 C   0  0  0  0  0  0  0  0  0  0  0  0
    0.8500   -0.6159    0.7072 C   0  0  0  0  0  0  0  0  0  0  0  0
    1.9087   -1.5612    0.7522 C   0  0  0  0  0  0  0  0  0  0  0  0
    1.6905   -2.9286    0.9381 O   0  0  0  0  0  0  0  0  0  0  0  0
    3.2341   -1.1451    0.5625 C   0  0  0  0  0  0  0  0  0  0  0  0
    4.2526   -2.1022    0.6457 O   0  0  0  0  0  0  0  0  0  0  0  0
    5.1275   -2.3933   -0.4397 C   0  0  0  0  0  0  0  0  0  0  0  0
   -0.5572   -0.9641    1.0507 C   0  0  0  0  0  0  0  0  0  0  0  0
   -0.8048   -1.9665    1.7753 O   0  0  0  0  0  0  0  0  0  0  0  0
   -1.6675   -0.0658    0.6377 C   0  0  0  0  0  0  0  0  0  0  0  0
   -1.3671    1.2498    0.2357 C   0  0  0  0  0  0  0  0  0  0  0  0
   -2.4045    2.1243   -0.1225 C   0  0  0  0  0  0  0  0  0  0  0  0
   -3.7415    1.7071   -0.0886 C   0  0  0  0  0  0  0  0  0  0  0  0
   -4.8276    2.6756   -0.4728 C   0  0  0  0  0  0  0  0  0  0  0  0
   -4.0463    0.3877    0.3070 C   0  0  0  0  0  0  0  0  0  0  0  0
   -5.3676   -0.0593    0.3869 O   0  0  0  0  0  0  0  0  0  0  0  0
   -3.0109   -0.5018    0.6470 C   0  0  0  0  0  0  0  0  0  0  0  0
   -3.3121   -1.8204    1.0058 O   0  0  0  0  0  0  0  0  0  0  0  0
   -3.8550   -2.7544    0.0770 C   0  0  0  0  0  0  0  0  0  0  0  0
    0.0428    1.7010    0.1891 C   0  0  0  0  0  0  0  0  0  0  0  0
    0.3083    2.9187   -0.0138 O   0  0  0  0  0  0  0  0  0  0  0  0
    4.9691    2.6084    0.7353 H   0  0  0  0  0  0  0  0  0  0  0  0
    6.4180    1.9404   -0.1096 H   0  0  0  0  0  0  0  0  0  0  0  0
    4.9188    2.2662   -1.0545 H   0  0  0  0  0  0  0  0  0  0  0  0
    2.6910    2.1548   -0.0590 H   0  0  0  0  0  0  0  0  0  0  0  0
    0.7900   -3.3754    0.8342 H   0  0  0  0  0  0  0  0  0  0  0  0
    4.5335   -2.7090   -1.3262 H   0  0  0  0  0  0  0  0  0  0  0  0
    5.8009   -3.2278   -0.1455 H   0  0  0  0  0  0  0  0  0  0  0  0
    5.7484   -1.5128   -0.7064 H   0  0  0  0  0  0  0  0  0  0  0  0
   -2.1727    3.1368   -0.4336 H   0  0  0  0  0  0  0  0  0  0  0  0
   -5.5007    2.8447    0.3936 H   0  0  0  0  0  0  0  0  0  0  0  0
   -5.4110    2.2681   -1.3260 H   0  0  0  0  0  0  0  0  0  0  0  0
   -4.4149    3.6602   -0.7811 H   0  0  0  0  0  0  0  0  0  0  0  0
   -6.1650    0.5220    0.1657 H   0  0  0  0  0  0  0  0  0  0  0  0
   -4.8538   -2.4258   -0.2768 H   0  0  0  0  0  0  0  0  0  0  0  0
   -3.1689   -2.8635   -0.7910 H   0  0  0  0  0  0  0  0  0  0  0  0
   -3.9615   -3.7408    0.5736 H   0  0  0  0  0  0  0  0  0  0  0  0
  1  2  1  0
  2  3  1  0
  3  4  2  0
  4  5  1  0
  5  6  2  0
  6  7  1  0
  7  8  1  0
  7  9  2  0
  9 10  1  0
 10 11  1  0
  6 12  1  0
 12 13  2  0
 12 14  1  0
 14 15  2  0
 15 16  1  0
 16 17  2  0
 17 18  1  0
 17 19  1  0
 19 20  1  0
 19 21  2  0
 21 22  1  0
 22 23  1  0
 15 24  1  0
 24 25  2  0
  9  3  1  0
 21 14  1  0
 24  5  1  0
  1 26  1  0
  1 27  1  0
  1 28  1  0
  4 29  1  0
  8 30  1  0
 11 31  1  0
 11 32  1  0
 11 33  1  0
 16 34  1  0
 18 35  1  0
 18 36  1  0
 18 37  1  0
 20 38  1  0
 23 39  1  0
 23 40  1  0
 23 41  1  0
M  END

     RDKit          3D

 40 42  0  0  0  0  0  0  0  0999 V2000
    5.4544    0.9794   -0.4687 C   0  0  0  0  0  0  0  0  0  0  0  0
    4.1143    0.3205   -0.2802 C   0  0  0  0  0  0  0  0  0  0  0  0
    2.9742    0.8852   -0.8651 C   0  0  0  0  0  0  0  0  0  0  0  0
    1.6924    0.3051   -0.7225 C   0  0  0  0  0  0  0  0  0  0  0  0
    1.5661   -0.8824    0.0609 C   0  0  0  0  0  0  0  0  0  0  0  0
    2.7302   -1.4421    0.6256 C   0  0  0  0  0  0  0  0  0  0  0  0
    3.9858   -0.8602    0.4662 C   0  0  0  0  0  0  0  0  0  0  0  0
    5.0842   -1.4815    1.0653 O   0  0  0  0  0  0  0  0  0  0  0  0
    0.3099   -1.6367    0.3577 C   0  0  0  0  0  0  0  0  0  0  0  0
   -0.9466   -1.1618    0.4547 C   0  0  0  0  0  0  0  0  0  0  0  0
   -1.9583   -2.0425    1.0932 C   0  0  0  0  0  0  0  0  0  0  0  0
   -3.0933   -1.5476    1.5828 C   0  0  0  0  0  0  0  0  0  0  0  0
   -3.3725   -0.0773    1.5196 C   0  0  0  0  0  0  0  0  0  0  0  0
   -2.8897    0.5174    0.1724 C   0  0  0  0  0  0  0  0  0  0  0  0
   -3.7229   -0.1066   -0.9822 C   0  0  0  0  0  0  0  0  0  0  0  0
   -3.1605    2.0394    0.2068 C   0  0  0  0  0  0  0  0  0  0  0  0
   -1.3394    0.2425    0.0193 C   0  0  2  0  0  0  0  0  0  0  0  0
   -0.8370    0.4690   -1.4214 C   0  0  0  0  0  0  0  0  0  0  0  0
    0.5670    0.9745   -1.4360 C   0  0  0  0  0  0  0  0  0  0  0  0
    0.7943    2.0189   -2.1085 O   0  0  0  0  0  0  0  0  0  0  0  0
    5.3764    1.9103   -1.0695 H   0  0  0  0  0  0  0  0  0  0  0  0
    5.8843    1.2465    0.5195 H   0  0  0  0  0  0  0  0  0  0  0  0
    6.1420    0.2863   -0.9971 H   0  0  0  0  0  0  0  0  0  0  0  0
    3.0973    1.7901   -1.4477 H   0  0  0  0  0  0  0  0  0  0  0  0
    2.6678   -2.3473    1.2196 H   0  0  0  0  0  0  0  0  0  0  0  0
    6.0286   -1.1252    0.9934 H   0  0  0  0  0  0  0  0  0  0  0  0
    0.4613   -2.6620    0.6823 H   0  0  0  0  0  0  0  0  0  0  0  0
   -1.7727   -3.1059    1.1909 H   0  0  0  0  0  0  0  0  0  0  0  0
   -3.8235   -2.2125    2.0270 H   0  0  0  0  0  0  0  0  0  0  0  0
   -4.4615    0.0954    1.6665 H   0  0  0  0  0  0  0  0  0  0  0  0
   -2.8375    0.4134    2.3624 H   0  0  0  0  0  0  0  0  0  0  0  0
   -4.8082   -0.0691   -0.7452 H   0  0  0  0  0  0  0  0  0  0  0  0
   -3.5822    0.4423   -1.9360 H   0  0  0  0  0  0  0  0  0  0  0  0
   -3.4417   -1.1669   -1.1534 H   0  0  0  0  0  0  0  0  0  0  0  0
   -2.8615    2.5298   -0.7422 H   0  0  0  0  0  0  0  0  0  0  0  0
   -4.2430    2.2389    0.3626 H   0  0  0  0  0  0  0  0  0  0  0  0
   -2.5992    2.5215    1.0361 H   0  0  0  0  0  0  0  0  0  0  0  0
   -0.8149    0.9442    0.7087 H   0  0  0  0  0  0  0  0  0  0  0  0
   -1.4636    1.2204   -1.9432 H   0  0  0  0  0  0  0  0  0  0  0  0
   -0.9009   -0.4634   -2.0250 H   0  0  0  0  0  0  0  0  0  0  0  0
  1  2  1  0
  2  3  2  0
  3  4  1  0
  4  5  2  0
  5  6  1  0
  6  7  2  0
  7  8  1  0
  5  9  1  0
  9 10  2  0
 10 11  1  0
 11 12  2  0
 12 13  1  0
 13 14  1  0
 14 15  1  0
 14 16  1  0
 14 17  1  0
 17 18  1  0
 18 19  1  0
 19 20  2  0
  7  2  1  0
 17 10  1  0
 19  4  1  0
  1 21  1  0
  1 22  1  0
  1 23  1  0
  3 24  1  0
  6 25  1  0
  8 26  1  0
  9 27  1  0
 11 28  1  0
 12 29  1  0
 13 30  1  0
 13 31  1  0
 15 32  1  0
 15 33  1  0
 15 34  1  0
 16 35  1  0
 16 36  1  0
 16 37  1  0
 17 38  1  1
 18 39  1  0
 18 40  1  0
M  END

     RDKit          3D

 50 49  0  0  0  0  0  0  0  0999 V2000
   -5.4589    2.7268    0.8160 C   0  0  0  0  0  0  0  0  0  0  0  0
   -5.0963    2.1615   -0.5567 C   0  0  0  0  0  0  0  0  0  0  0  0
   -4.0281    1.0603   -0.4819 C   0  0  0  0  0  0  0  0  0  0  0  0
   -4.5694   -0.2399    0.1380 C   0  0  0  0  0  0  0  0  0  0  0  0
   -3.5894   -1.4135   -0.0121 C   0  0  0  0  0  0  0  0  0  0  0  0
   -2.3401   -1.2520    0.8709 C   0  0  0  0  0  0  0  0  0  0  0  0
   -1.4359   -2.4971    0.8577 C   0  0  0  0  0  0  0  0  0  0  0  0
   -0.8524   -2.8676   -0.5215 C   0  0  0  0  0  0  0  0  0  0  0  0
   -0.0783   -1.7407   -1.2286 C   0  0  0  0  0  0  0  0  0  0  0  0
    1.1414   -1.2583   -0.4300 C   0  0  0  0  0  0  0  0  0  0  0  0
    1.9356   -0.2113   -1.2275 C   0  0  0  0  0  0  0  0  0  0  0  0
    3.0970    0.3914   -0.4193 C   0  0  0  0  0  0  0  0  0  0  0  0
    4.3074   -0.5544   -0.3356 C   0  0  0  0  0  0  0  0  0  0  0  0
    5.4160   -0.0345    0.5984 C   0  0  0  0  0  0  0  0  0  0  0  0
    6.2471    1.1175    0.0055 C   0  0  0  0  0  0  0  0  0  0  0  0
    5.5671    2.4463    0.1370 C   0  0  0  0  0  0  0  0  0  0  0  0
    5.3909    3.1677   -0.8815 O   0  0  0  0  0  0  0  0  0  0  0  0
    5.1559    2.9007    1.3881 O   0  0  0  0  0  0  0  0  0  0  0  0
   -5.9537    1.9546    1.4405 H   0  0  0  0  0  0  0  0  0  0  0  0
   -6.1626    3.5756    0.6892 H   0  0  0  0  0  0  0  0  0  0  0  0
   -4.5497    3.0967    1.3352 H   0  0  0  0  0  0  0  0  0  0  0  0
   -4.7022    2.9912   -1.1828 H   0  0  0  0  0  0  0  0  0  0  0  0
   -6.0123    1.7744   -1.0538 H   0  0  0  0  0  0  0  0  0  0  0  0
   -3.1573    1.4310    0.0998 H   0  0  0  0  0  0  0  0  0  0  0  0
   -3.6786    0.8510   -1.5163 H   0  0  0  0  0  0  0  0  0  0  0  0
   -5.5167   -0.5192   -0.3738 H   0  0  0  0  0  0  0  0  0  0  0  0
   -4.7995   -0.0847    1.2138 H   0  0  0  0  0  0  0  0  0  0  0  0
   -3.2972   -1.5093   -1.0798 H   0  0  0  0  0  0  0  0  0  0  0  0
   -4.1196   -2.3469    0.2803 H   0  0  0  0  0  0  0  0  0  0  0  0
   -2.6627   -1.0791    1.9209 H   0  0  0  0  0  0  0  0  0  0  0  0
   -1.7567   -0.3615    0.5612 H   0  0  0  0  0  0  0  0  0  0  0  0
   -2.0169   -3.3659    1.2366 H   0  0  0  0  0  0  0  0  0  0  0  0
   -0.6050   -2.3416    1.5772 H   0  0  0  0  0  0  0  0  0  0  0  0
   -0.1728   -3.7377   -0.3891 H   0  0  0  0  0  0  0  0  0  0  0  0
   -1.6742   -3.2073   -1.1871 H   0  0  0  0  0  0  0  0  0  0  0  0
    0.2717   -2.1348   -2.2079 H   0  0  0  0  0  0  0  0  0  0  0  0
   -0.7565   -0.8890   -1.4472 H   0  0  0  0  0  0  0  0  0  0  0  0
    0.8043   -0.7999    0.5247 H   0  0  0  0  0  0  0  0  0  0  0  0
    1.7890   -2.1310   -0.1989 H   0  0  0  0  0  0  0  0  0  0  0  0
    2.3227   -0.6595   -2.1700 H   0  0  0  0  0  0  0  0  0  0  0  0
    1.2468    0.6171   -1.5084 H   0  0  0  0  0  0  0  0  0  0  0  0
    3.4063    1.3248   -0.9333 H   0  0  0  0  0  0  0  0  0  0  0  0
    2.7481    0.6629    0.6013 H   0  0  0  0  0  0  0  0  0  0  0  0
    3.9755   -1.5365    0.0620 H   0  0  0  0  0  0  0  0  0  0  0  0
    4.7181   -0.7310   -1.3543 H   0  0  0  0  0  0  0  0  0  0  0  0
    4.9910    0.2506    1.5854 H   0  0  0  0  0  0  0  0  0  0  0  0
    6.1120   -0.8819    0.7877 H   0  0  0  0  0  0  0  0  0  0  0  0
    7.2119    1.1763    0.5535 H   0  0  0  0  0  0  0  0  0  0  0  0
    6.4862    0.9090   -1.0602 H   0  0  0  0  0  0  0  0  0  0  0  0
    4.7006    3.7986    1.4883 H   0  0  0  0  0  0  0  0  0  0  0  0
  1  2  1  0
  2  3  1  0
  3  4  1  0
  4  5  1  0
  5  6  1  0
  6  7  1  0
  7  8  1  0
  8  9  1  0
  9 10  1  0
 10 11  1  0
 11 12  1  0
 12 13  1  0
 13 14  1  0
 14 15  1  0
 15 16  1  0
 16 17  2  0
 16 18  1  0
  1 19  1  0
  1 20  1  0
  1 21  1  0
  2 22  1  0
  2 23  1  0
  3 24  1  0
  3 25  1  0
  4 26  1  0
  4 27  1  0
  5 28  1  0
  5 29  1  0
  6 30  1  0
  6 31  1  0
  7 32  1  0
  7 33  1  0
  8 34  1  0
  8 35  1  0
  9 36  1  0
  9 37  1  0
 10 38  1  0
 10 39  1  0
 11 40  1  0
 11 41  1  0
 12 42  1  0
 12 43  1  0
 13 44  1  0
 13 45  1  0
 14 46  1  0
 14 47  1  0
 15 48  1  0
 15 49  1  0
 18 50  1  0
M  END

     RDKit          3D

 32 34  0  0  0  0  0  0  0  0999 V2000
    1.7823   -1.9559   -2.5522 O   0  0  0  0  0  0  0  0  0  0  0  0
    1.3673   -1.2445   -1.6025 C   0  0  0  0  0  0  0  0  0  0  0  0
   -0.0120   -1.0651   -1.4804 C   0  0  0  0  0  0  0  0  0  0  0  0
   -0.5254   -0.2793   -0.4363 C   0  0  0  0  0  0  0  0  0  0  0  0
   -1.9885   -0.0387   -0.2370 C   0  0  0  0  0  0  0  0  0  0  0  0
   -2.9775   -0.5837   -1.0848 C   0  0  0  0  0  0  0  0  0  0  0  0
   -4.3323   -0.3289   -0.8559 C   0  0  0  0  0  0  0  0  0  0  0  0
   -4.7325    0.4716    0.2189 C   0  0  0  0  0  0  0  0  0  0  0  0
   -6.0857    0.7220    0.4419 O   0  0  0  0  0  0  0  0  0  0  0  0
   -3.7645    1.0214    1.0716 C   0  0  0  0  0  0  0  0  0  0  0  0
   -4.1293    1.8239    2.1524 O   0  0  0  0  0  0  0  0  0  0  0  0
   -2.4081    0.7663    0.8423 C   0  0  0  0  0  0  0  0  0  0  0  0
    0.3251    0.2797    0.4185 O   0  0  0  0  0  0  0  0  0  0  0  0
    1.6444    0.1425    0.3494 C   0  0  0  0  0  0  0  0  0  0  0  0
    2.4246    0.7831    1.3110 C   0  0  0  0  0  0  0  0  0  0  0  0
    3.8131    0.6730    1.2860 C   0  0  0  0  0  0  0  0  0  0  0  0
    4.5869    1.3165    2.2509 O   0  0  0  0  0  0  0  0  0  0  0  0
    4.4370   -0.0839    0.2923 C   0  0  0  0  0  0  0  0  0  0  0  0
    5.8310   -0.1710    0.2998 O   0  0  0  0  0  0  0  0  0  0  0  0
    3.6758   -0.7441   -0.6947 C   0  0  0  0  0  0  0  0  0  0  0  0
    4.3923   -1.4782   -1.6481 O   0  0  0  0  0  0  0  0  0  0  0  0
    2.2476   -0.6345   -0.6741 C   0  0  0  0  0  0  0  0  0  0  0  0
   -0.6519   -1.5443   -2.2049 H   0  0  0  0  0  0  0  0  0  0  0  0
   -2.7313   -1.2076   -1.9285 H   0  0  0  0  0  0  0  0  0  0  0  0
   -5.0738   -0.7570   -1.5187 H   0  0  0  0  0  0  0  0  0  0  0  0
   -6.8032    0.3357   -0.1606 H   0  0  0  0  0  0  0  0  0  0  0  0
   -5.0969    2.0385    2.3613 H   0  0  0  0  0  0  0  0  0  0  0  0
   -1.6837    1.2046    1.5176 H   0  0  0  0  0  0  0  0  0  0  0  0
    1.9451    1.3715    2.0840 H   0  0  0  0  0  0  0  0  0  0  0  0
    4.1652    1.8732    2.9853 H   0  0  0  0  0  0  0  0  0  0  0  0
    6.3491   -0.7018   -0.3897 H   0  0  0  0  0  0  0  0  0  0  0  0
    4.0096   -2.0051   -2.4148 H   0  0  0  0  0  0  0  0  0  0  0  0
  1  2  2  0
  2  3  1  0
  3  4  2  0
  4  5  1  0
  5  6  2  0
  6  7  1  0
  7  8  2  0
  8  9  1  0
  8 10  1  0
 10 11  1  0
 10 12  2  0
  4 13  1  0
 13 14  1  0
 14 15  2  0
 15 16  1  0
 16 17  1  0
 16 18  2  0
 18 19  1  0
 18 20  1  0
 20 21  1  0
 20 22  2  0
 22  2  1  0
 12  5  1  0
 22 14  1  0
  3 23  1  0
  6 24  1  0
  7 25  1  0
  9 26  1  0
 11 27  1  0
 12 28  1  0
 15 29  1  0
 17 30  1  0
 19 31  1  0
 21 32  1  0
M  END

     RDKit          3D

 38 40  0  0  0  0  0  0  0  0999 V2000
   -6.5924    0.7863   -0.8726 C   0  0  0  0  0  0  0  0  0  0  0  0
   -5.3254    0.1423   -0.9927 O   0  0  0  0  0  0  0  0  0  0  0  0
   -4.1377    0.6125   -0.4112 C   0  0  0  0  0  0  0  0  0  0  0  0
   -4.0966    1.7561    0.4037 C   0  0  0  0  0  0  0  0  0  0  0  0
   -2.8894    2.2071    0.9565 C   0  0  0  0  0  0  0  0  0  0  0  0
   -2.9577    3.2857    1.8435 O   0  0  0  0  0  0  0  0  0  0  0  0
   -1.6736    1.5472    0.6238 C   0  0  0  0  0  0  0  0  0  0  0  0
   -0.3868    2.0258    0.9697 C   0  0  0  0  0  0  0  0  0  0  0  0
   -0.2322    3.1452    1.5305 O   0  0  0  0  0  0  0  0  0  0  0  0
    0.7484    1.2722    0.6330 C   0  0  0  0  0  0  0  0  0  0  0  0
    2.0292    1.7473    0.9231 O   0  0  0  0  0  0  0  0  0  0  0  0
    0.5810    0.0502   -0.0440 C   0  0  0  0  0  0  0  0  0  0  0  0
    1.7286   -0.8254   -0.3870 C   0  0  0  0  0  0  0  0  0  0  0  0
    1.7327   -1.5114   -1.6118 C   0  0  0  0  0  0  0  0  0  0  0  0
    2.8011   -2.3408   -1.9529 C   0  0  0  0  0  0  0  0  0  0  0  0
    3.8801   -2.5053   -1.0732 C   0  0  0  0  0  0  0  0  0  0  0  0
    4.9553   -3.3192   -1.4251 O   0  0  0  0  0  0  0  0  0  0  0  0
    3.8868   -1.8426    0.1607 C   0  0  0  0  0  0  0  0  0  0  0  0
    4.9887   -2.0231    1.0118 O   0  0  0  0  0  0  0  0  0  0  0  0
    5.1804   -1.3315    2.2452 C   0  0  0  0  0  0  0  0  0  0  0  0
    2.7966   -1.0217    0.5095 C   0  0  0  0  0  0  0  0  0  0  0  0
   -0.6351   -0.3257   -0.4279 O   0  0  0  0  0  0  0  0  0  0  0  0
   -1.7360    0.3639   -0.1523 C   0  0  0  0  0  0  0  0  0  0  0  0
   -2.9581   -0.0902   -0.6554 C   0  0  0  0  0  0  0  0  0  0  0  0
   -6.5373    1.8183   -1.2841 H   0  0  0  0  0  0  0  0  0  0  0  0
   -7.3504    0.2202   -1.4520 H   0  0  0  0  0  0  0  0  0  0  0  0
   -6.9057    0.8078    0.1932 H   0  0  0  0  0  0  0  0  0  0  0  0
   -5.0037    2.2957    0.6392 H   0  0  0  0  0  0  0  0  0  0  0  0
   -2.2593    3.4773    2.5438 H   0  0  0  0  0  0  0  0  0  0  0  0
    2.1875    2.6354    1.3867 H   0  0  0  0  0  0  0  0  0  0  0  0
    0.9160   -1.3935   -2.3156 H   0  0  0  0  0  0  0  0  0  0  0  0
    2.7924   -2.8446   -2.9158 H   0  0  0  0  0  0  0  0  0  0  0  0
    4.9701   -3.8192   -2.3105 H   0  0  0  0  0  0  0  0  0  0  0  0
    5.1815   -0.2319    2.0659 H   0  0  0  0  0  0  0  0  0  0  0  0
    6.1618   -1.6246    2.6759 H   0  0  0  0  0  0  0  0  0  0  0  0
    4.3827   -1.6065    2.9710 H   0  0  0  0  0  0  0  0  0  0  0  0
    2.7676   -0.5530    1.4834 H   0  0  0  0  0  0  0  0  0  0  0  0
   -2.9909   -0.9865   -1.2633 H   0  0  0  0  0  0  0  0  0  0  0  0
  1  2  1  0
  2  3  1  0
  3  4  2  0
  4  5  1  0
  5  6  1  0
  5  7  2  0
  7  8  1  0
  8  9  2  0
  8 10  1  0
 10 11  1  0
 10 12  2  0
 12 13  1  0
 13 14  2  0
 14 15  1  0
 15 16  2  0
 16 17  1  0
 16 18  1  0
 18 19  1  0
 19 20  1  0
 18 21  2  0
 12 22  1  0
 22 23  1  0
 23 24  2  0
 24  3  1  0
 23  7  1  0
 21 13  1  0
  1 25  1  0
  1 26  1  0
  1 27  1  0
  4 28  1  0
  6 29  1  0
 11 30  1  0
 14 31  1  0
 15 32  1  0
 17 33  1  0
 20 34  1  0
 20 35  1  0
 20 36  1  0
 21 37  1  0
 24 38  1  0
M  END

     RDKit          3D

 55 56  0  0  0  0  0  0  0  0999 V2000
   -4.6401    1.8637   -1.6287 C   0  0  0  0  0  0  0  0  0  0  0  0
   -3.4921    0.8913   -1.7195 C   0  0  0  0  0  0  0  0  0  0  0  0
   -3.7584   -0.3774   -2.0590 C   0  0  0  0  0  0  0  0  0  0  0  0
   -2.6995   -1.4358   -2.1314 C   0  0  0  0  0  0  0  0  0  0  0  0
   -2.0446   -1.6819   -0.7636 C   0  0  0  0  0  0  0  0  0  0  0  0
   -0.8663   -0.7150   -0.4346 C   0  0  1  0  0  0  0  0  0  0  0  0
   -1.3352    0.7619   -0.2815 C   0  0  1  0  0  0  0  0  0  0  0  0
   -2.0721    1.3685   -1.4985 C   0  0  0  0  0  0  0  0  0  0  0  0
   -2.0220    0.9431    1.0503 C   0  0  0  0  0  0  0  0  0  0  0  0
   -3.1585    1.3811    1.1417 O   0  0  0  0  0  0  0  0  0  0  0  0
   -1.2361    0.6086    2.2865 C   0  0  0  0  0  0  0  0  0  0  0  0
   -0.6874   -0.8352    2.2171 C   0  0  1  0  0  0  0  0  0  0  0  0
   -1.7778   -1.8119    2.7103 C   0  0  0  0  0  0  0  0  0  0  0  0
    0.0220   -1.1678    0.8260 C   0  0  1  0  0  0  0  0  0  0  0  0
    0.3848   -2.6779    0.7627 C   0  0  0  0  0  0  0  0  0  0  0  0
    1.4035   -0.4063    0.8510 C   0  0  0  0  0  0  0  0  0  0  0  0
    2.3840   -0.6557   -0.3199 C   0  0  0  0  0  0  0  0  0  0  0  0
    3.5438    0.3126   -0.2257 C   0  0  0  0  0  0  0  0  0  0  0  0
    3.4295    1.5178   -0.8189 C   0  0  0  0  0  0  0  0  0  0  0  0
    4.4635    2.6082   -0.7211 C   0  0  0  0  0  0  0  0  0  0  0  0
    4.1011    3.6877   -1.5301 O   0  0  0  0  0  0  0  0  0  0  0  0
    4.7305   -0.0527    0.6470 C   0  0  0  0  0  0  0  0  0  0  0  0
    5.9256    0.0280   -0.0673 O   0  0  0  0  0  0  0  0  0  0  0  0
   -5.3977    1.4861   -0.9048 H   0  0  0  0  0  0  0  0  0  0  0  0
   -4.3049    2.8659   -1.2842 H   0  0  0  0  0  0  0  0  0  0  0  0
   -5.1287    1.9731   -2.6207 H   0  0  0  0  0  0  0  0  0  0  0  0
   -4.7871   -0.6639   -2.2548 H   0  0  0  0  0  0  0  0  0  0  0  0
   -1.9424   -1.1890   -2.9027 H   0  0  0  0  0  0  0  0  0  0  0  0
   -3.1987   -2.3754   -2.4598 H   0  0  0  0  0  0  0  0  0  0  0  0
   -2.8304   -1.6338    0.0062 H   0  0  0  0  0  0  0  0  0  0  0  0
   -1.6840   -2.7330   -0.8035 H   0  0  0  0  0  0  0  0  0  0  0  0
   -0.2261   -0.7483   -1.3346 H   0  0  0  0  0  0  0  0  0  0  0  0
   -0.4174    1.3804   -0.2337 H   0  0  0  0  0  0  0  0  0  0  0  0
   -1.4809    1.1621   -2.4137 H   0  0  0  0  0  0  0  0  0  0  0  0
   -2.0760    2.4734   -1.3833 H   0  0  0  0  0  0  0  0  0  0  0  0
   -0.4065    1.3360    2.3987 H   0  0  0  0  0  0  0  0  0  0  0  0
   -1.8615    0.7544    3.1973 H   0  0  0  0  0  0  0  0  0  0  0  0
    0.0893   -0.8978    3.0146 H   0  0  0  0  0  0  0  0  0  0  0  0
   -1.4199   -2.8582    2.7712 H   0  0  0  0  0  0  0  0  0  0  0  0
   -2.0550   -1.5454    3.7553 H   0  0  0  0  0  0  0  0  0  0  0  0
   -2.6991   -1.7446    2.1133 H   0  0  0  0  0  0  0  0  0  0  0  0
    1.1350   -2.9343    1.5428 H   0  0  0  0  0  0  0  0  0  0  0  0
   -0.4830   -3.3612    0.8898 H   0  0  0  0  0  0  0  0  0  0  0  0
    0.8123   -2.9283   -0.2303 H   0  0  0  0  0  0  0  0  0  0  0  0
    1.2397    0.6781    0.9612 H   0  0  0  0  0  0  0  0  0  0  0  0
    1.9521   -0.7008    1.7773 H   0  0  0  0  0  0  0  0  0  0  0  0
    1.8953   -0.5322   -1.3016 H   0  0  0  0  0  0  0  0  0  0  0  0
    2.7750   -1.6974   -0.2943 H   0  0  0  0  0  0  0  0  0  0  0  0
    2.5316    1.7426   -1.3975 H   0  0  0  0  0  0  0  0  0  0  0  0
    5.4388    2.2364   -1.0886 H   0  0  0  0  0  0  0  0  0  0  0  0
    4.5680    2.9410    0.3316 H   0  0  0  0  0  0  0  0  0  0  0  0
    3.3829    4.1860   -1.0479 H   0  0  0  0  0  0  0  0  0  0  0  0
    4.7642    0.6339    1.5200 H   0  0  0  0  0  0  0  0  0  0  0  0
    4.5943   -1.0964    1.0316 H   0  0  0  0  0  0  0  0  0  0  0  0
    6.6228   -0.3640    0.5187 H   0  0  0  0  0  0  0  0  0  0  0  0
  1  2  1  0
  2  3  2  0
  3  4  1  0
  4  5  1  0
  5  6  1  0
  6  7  1  0
  7  8  1  0
  7  9  1  0
  9 10  2  0
  9 11  1  0
 11 12  1  0
 12 13  1  0
 12 14  1  0
 14 15  1  6
 14 16  1  0
 16 17  1  0
 17 18  1  0
 18 19  2  0
 19 20  1  0
 20 21  1  0
 18 22  1  0
 22 23  1  0
  8  2  1  0
 14  6  1  0
  1 24  1  0
  1 25  1  0
  1 26  1  0
  3 27  1  0
  4 28  1  0
  4 29  1  0
  5 30  1  0
  5 31  1  0
  6 32  1  6
  7 33  1  1
  8 34  1  0
  8 35  1  0
 11 36  1  0
 11 37  1  0
 12 38  1  1
 13 39  1  0
 13 40  1  0
 13 41  1  0
 15 42  1  0
 15 43  1  0
 15 44  1  0
 16 45  1  0
 16 46  1  0
 17 47  1  0
 17 48  1  0
 19 49  1  0
 20 50  1  0
 20 51  1  0
 21 52  1  0
 22 53  1  0
 22 54  1  0
 23 55  1  0
M  END

     RDKit          3D

 43 45  0  0  0  0  0  0  0  0999 V2000
   -0.1598   -3.6238    1.1768 C   0  0  0  0  0  0  0  0  0  0  0  0
   -0.5713   -2.2919    1.4506 O   0  0  0  0  0  0  0  0  0  0  0  0
   -0.5787   -1.2923    0.4717 C   0  0  0  0  0  0  0  0  0  0  0  0
   -0.2554   -1.5631   -0.7192 O   0  0  0  0  0  0  0  0  0  0  0  0
   -1.0293    0.1016    0.8426 C   0  0  1  0  0  0  0  0  0  0  0  0
   -0.2528    1.2295    0.0754 C   0  0  1  0  0  0  0  0  0  0  0  0
    1.0784    0.8334   -0.2656 O   0  0  0  0  0  0  0  0  0  0  0  0
    2.1073    0.6954    0.6765 C   0  0  0  0  0  0  0  0  0  0  0  0
    1.9221    1.0445    1.8735 O   0  0  0  0  0  0  0  0  0  0  0  0
    3.4112    0.1371    0.2613 C   0  0  0  0  0  0  0  0  0  0  0  0
    4.5333    0.2240    1.1075 C   0  0  0  0  0  0  0  0  0  0  0  0
    5.7642   -0.3057    0.7065 C   0  0  0  0  0  0  0  0  0  0  0  0
    5.8845   -0.9362   -0.5348 C   0  0  0  0  0  0  0  0  0  0  0  0
    4.7755   -1.0352   -1.3783 C   0  0  0  0  0  0  0  0  0  0  0  0
    3.5444   -0.4994   -0.9861 C   0  0  0  0  0  0  0  0  0  0  0  0
   -1.0006    1.7240   -1.1902 C   0  0  0  0  0  0  0  0  0  0  0  0
   -2.5477    1.7560   -0.9878 C   0  0  1  0  0  0  0  0  0  0  0  0
   -3.1974    0.4852   -1.5645 C   0  0  0  0  0  0  0  0  0  0  0  0
   -3.2679   -0.4659   -0.3799 C   0  0  0  0  0  0  0  0  0  0  0  0
   -2.5868    0.3093    0.7668 C   0  0  2  0  0  0  0  0  0  0  0  0
   -2.8156    1.7283    0.4576 N   0  0  0  0  0  0  0  0  0  0  0  0
   -4.1767    2.1837    0.7970 C   0  0  0  0  0  0  0  0  0  0  0  0
    0.8963   -3.6353    0.8371 H   0  0  0  0  0  0  0  0  0  0  0  0
   -0.8112   -4.0690    0.3962 H   0  0  0  0  0  0  0  0  0  0  0  0
   -0.2428   -4.2250    2.1050 H   0  0  0  0  0  0  0  0  0  0  0  0
   -0.7505    0.2262    1.9113 H   0  0  0  0  0  0  0  0  0  0  0  0
   -0.1895    2.1111    0.7540 H   0  0  0  0  0  0  0  0  0  0  0  0
    4.4628    0.7079    2.0741 H   0  0  0  0  0  0  0  0  0  0  0  0
    6.6241   -0.2315    1.3613 H   0  0  0  0  0  0  0  0  0  0  0  0
    6.8362   -1.3522   -0.8396 H   0  0  0  0  0  0  0  0  0  0  0  0
    4.8704   -1.5272   -2.3394 H   0  0  0  0  0  0  0  0  0  0  0  0
    2.6974   -0.5954   -1.6531 H   0  0  0  0  0  0  0  0  0  0  0  0
   -0.6467    2.7530   -1.4155 H   0  0  0  0  0  0  0  0  0  0  0  0
   -0.7134    1.1003   -2.0637 H   0  0  0  0  0  0  0  0  0  0  0  0
   -2.9706    2.6655   -1.4717 H   0  0  0  0  0  0  0  0  0  0  0  0
   -4.2233    0.7151   -1.9316 H   0  0  0  0  0  0  0  0  0  0  0  0
   -2.6282    0.0399   -2.4084 H   0  0  0  0  0  0  0  0  0  0  0  0
   -2.8259   -1.4555   -0.6133 H   0  0  0  0  0  0  0  0  0  0  0  0
   -4.3326   -0.6490   -0.1167 H   0  0  0  0  0  0  0  0  0  0  0  0
   -3.0421    0.0257    1.7422 H   0  0  0  0  0  0  0  0  0  0  0  0
   -4.9644    1.6197    0.2534 H   0  0  0  0  0  0  0  0  0  0  0  0
   -4.2800    3.2610    0.5545 H   0  0  0  0  0  0  0  0  0  0  0  0
   -4.3468    2.0760    1.8883 H   0  0  0  0  0  0  0  0  0  0  0  0
  1  2  1  0
  2  3  1  0
  3  4  2  0
  3  5  1  0
  5  6  1  0
  6  7  1  0
  7  8  1  0
  8  9  2  0
  8 10  1  0
 10 11  2  0
 11 12  1  0
 12 13  2  0
 13 14  1  0
 14 15  2  0
  6 16  1  0
 16 17  1  0
 17 18  1  0
 18 19  1  0
 19 20  1  0
 20 21  1  0
 21 22  1  0
 20  5  1  0
 15 10  1  0
 21 17  1  0
  1 23  1  0
  1 24  1  0
  1 25  1  0
  5 26  1  1
  6 27  1  1
 11 28  1  0
 12 29  1  0
 13 30  1  0
 14 31  1  0
 15 32  1  0
 16 33  1  0
 16 34  1  0
 17 35  1  6
 18 36  1  0
 18 37  1  0
 19 38  1  0
 19 39  1  0
 20 40  1  1
 22 41  1  0
 22 42  1  0
 22 43  1  0
M  END

     RDKit          3D

 25 27  0  0  0  0  0  0  0  0999 V2000
    0.0078    2.1870   -0.8158 O   0  0  0  0  0  0  0  0  0  0  0  0
   -0.0764    1.0443   -0.2950 C   0  0  0  0  0  0  0  0  0  0  0  0
    1.1007    0.2938   -0.1137 C   0  0  0  0  0  0  0  0  0  0  0  0
    2.3665    0.7817   -0.4967 C   0  0  0  0  0  0  0  0  0  0  0  0
    3.5151    0.0021   -0.2987 C   0  0  0  0  0  0  0  0  0  0  0  0
    4.7693    0.4778   -0.6748 O   0  0  0  0  0  0  0  0  0  0  0  0
    3.4053   -1.2650    0.2811 C   0  0  0  0  0  0  0  0  0  0  0  0
    2.1555   -1.7571    0.6638 C   0  0  0  0  0  0  0  0  0  0  0  0
    1.0049   -0.9853    0.4696 C   0  0  0  0  0  0  0  0  0  0  0  0
   -0.1722   -1.4669    0.8382 O   0  0  0  0  0  0  0  0  0  0  0  0
   -1.3088   -0.7975    0.6879 C   0  0  0  0  0  0  0  0  0  0  0  0
   -2.4925   -1.4045    1.1133 C   0  0  0  0  0  0  0  0  0  0  0  0
   -3.7089   -0.7467    0.9785 C   0  0  0  0  0  0  0  0  0  0  0  0
   -3.7547    0.5254    0.4168 C   0  0  0  0  0  0  0  0  0  0  0  0
   -2.5896    1.1676   -0.0220 C   0  0  0  0  0  0  0  0  0  0  0  0
   -2.7689    2.4437   -0.5682 O   0  0  0  0  0  0  0  0  0  0  0  0
   -1.3264    0.5040    0.1093 C   0  0  0  0  0  0  0  0  0  0  0  0
    2.4685    1.7615   -0.9473 H   0  0  0  0  0  0  0  0  0  0  0  0
    4.8848    1.3914   -1.0976 H   0  0  0  0  0  0  0  0  0  0  0  0
    4.2903   -1.8691    0.4351 H   0  0  0  0  0  0  0  0  0  0  0  0
    2.0810   -2.7399    1.1122 H   0  0  0  0  0  0  0  0  0  0  0  0
   -2.4674   -2.3945    1.5518 H   0  0  0  0  0  0  0  0  0  0  0  0
   -4.6216   -1.2244    1.3109 H   0  0  0  0  0  0  0  0  0  0  0  0
   -4.7116    1.0232    0.3195 H   0  0  0  0  0  0  0  0  0  0  0  0
   -2.0509    3.0475   -0.9317 H   0  0  0  0  0  0  0  0  0  0  0  0
  1  2  2  0
  2  3  1  0
  3  4  2  0
  4  5  1  0
  5  6  1  0
  5  7  2  0
  7  8  1  0
  8  9  2  0
  9 10  1  0
 10 11  1  0
 11 12  2  0
 12 13  1  0
 13 14  2  0
 14 15  1  0
 15 16  1  0
 15 17  2  0
 17  2  1  0
  9  3  1  0
 17 11  1  0
  4 18  1  0
  6 19  1  0
  7 20  1  0
  8 21  1  0
 12 22  1  0
 13 23  1  0
 14 24  1  0
 16 25  1  0
M  END

     RDKit          3D

 39 40  0  0  0  0  0  0  0  0999 V2000
   -2.2262    3.0516    1.5781 C   0  0  0  0  0  0  0  0  0  0  0  0
   -1.7961    1.9513    0.6483 C   0  0  0  0  0  0  0  0  0  0  0  0
   -0.5385    1.4759    0.6998 C   0  0  0  0  0  0  0  0  0  0  0  0
   -0.1265    0.3294   -0.2052 C   0  0  2  0  0  0  0  0  0  0  0  0
   -1.2427   -0.7227   -0.1930 C   0  0  0  0  0  0  0  0  0  0  0  0
   -0.9761   -2.0604   -0.1905 C   0  0  0  0  0  0  0  0  0  0  0  0
   -2.0919   -3.0804   -0.1943 C   0  0  0  0  0  0  0  0  0  0  0  0
    0.4373   -2.5879   -0.0611 C   0  0  0  0  0  0  0  0  0  0  0  0
    1.4853   -1.5835   -0.5292 C   0  0  0  0  0  0  0  0  0  0  0  0
    1.2725   -0.2313    0.1743 C   0  0  1  0  0  0  0  0  0  0  0  0
    2.4322    0.7842   -0.1120 C   0  0  0  0  0  0  0  0  0  0  0  0
    2.7907    0.9268   -1.6028 C   0  0  0  0  0  0  0  0  0  0  0  0
    3.6934    0.4399    0.6960 C   0  0  0  0  0  0  0  0  0  0  0  0
   -2.6851   -0.2176   -0.2372 C   0  0  0  0  0  0  0  0  0  0  0  0
   -2.7730    1.3164   -0.3146 C   0  0  0  0  0  0  0  0  0  0  0  0
   -1.6354    3.9680    1.3711 H   0  0  0  0  0  0  0  0  0  0  0  0
   -3.3012    3.2907    1.4487 H   0  0  0  0  0  0  0  0  0  0  0  0
   -2.0602    2.7411    2.6310 H   0  0  0  0  0  0  0  0  0  0  0  0
    0.1587    1.8853    1.4259 H   0  0  0  0  0  0  0  0  0  0  0  0
   -0.0837    0.7208   -1.2430 H   0  0  0  0  0  0  0  0  0  0  0  0
   -2.7707   -2.9135    0.6670 H   0  0  0  0  0  0  0  0  0  0  0  0
   -2.6652   -3.0100   -1.1410 H   0  0  0  0  0  0  0  0  0  0  0  0
   -1.6927   -4.1138   -0.1132 H   0  0  0  0  0  0  0  0  0  0  0  0
    0.6242   -2.8504    1.0026 H   0  0  0  0  0  0  0  0  0  0  0  0
    0.5504   -3.5141   -0.6646 H   0  0  0  0  0  0  0  0  0  0  0  0
    2.4903   -1.9939   -0.2975 H   0  0  0  0  0  0  0  0  0  0  0  0
    1.4001   -1.4670   -1.6319 H   0  0  0  0  0  0  0  0  0  0  0  0
    1.2576   -0.4257    1.2721 H   0  0  0  0  0  0  0  0  0  0  0  0
    2.1154    1.7903    0.2349 H   0  0  0  0  0  0  0  0  0  0  0  0
    1.8990    1.1904   -2.2067 H   0  0  0  0  0  0  0  0  0  0  0  0
    3.2375   -0.0094   -2.0011 H   0  0  0  0  0  0  0  0  0  0  0  0
    3.5329    1.7435   -1.7342 H   0  0  0  0  0  0  0  0  0  0  0  0
    4.4552    1.2390    0.5694 H   0  0  0  0  0  0  0  0  0  0  0  0
    4.1366   -0.5205    0.3603 H   0  0  0  0  0  0  0  0  0  0  0  0
    3.4520    0.3685    1.7775 H   0  0  0  0  0  0  0  0  0  0  0  0
   -3.2108   -0.6435   -1.1180 H   0  0  0  0  0  0  0  0  0  0  0  0
   -3.2104   -0.5505    0.6835 H   0  0  0  0  0  0  0  0  0  0  0  0
   -3.8147    1.6384   -0.1034 H   0  0  0  0  0  0  0  0  0  0  0  0
   -2.5201    1.6448   -1.3461 H   0  0  0  0  0  0  0  0  0  0  0  0
  1  2  1  0
  2  3  2  0
  3  4  1  0
  4  5  1  0
  5  6  2  0
  6  7  1  0
  6  8  1  0
  8  9  1  0
  9 10  1  0
 10 11  1  0
 11 12  1  0
 11 13  1  0
  5 14  1  0
 14 15  1  0
 15  2  1  0
 10  4  1  0
  1 16  1  0
  1 17  1  0
  1 18  1  0
  3 19  1  0
  4 20  1  6
  7 21  1  0
  7 22  1  0
  7 23  1  0
  8 24  1  0
  8 25  1  0
  9 26  1  0
  9 27  1  0
 10 28  1  1
 11 29  1  0
 12 30  1  0
 12 31  1  0
 12 32  1  0
 13 33  1  0
 13 34  1  0
 13 35  1  0
 14 36  1  0
 14 37  1  0
 15 38  1  0
 15 39  1  0
M  END

     RDKit          3D

 99100  0  0  0  0  0  0  0  0999 V2000
   12.9488   -2.7376    0.4833 C   0  0  0  0  0  0  0  0  0  0  0  0
   12.9166   -1.6323   -0.5458 C   0  0  0  0  0  0  0  0  0  0  0  0
   11.7361   -1.0718   -0.9570 C   0  0  0  0  0  0  0  0  0  0  0  0
   10.4557   -1.6493   -0.4266 C   0  0  0  0  0  0  0  0  0  0  0  0
    9.3569   -0.9369   -0.1213 C   0  0  0  0  0  0  0  0  0  0  0  0
    8.1168   -1.5642    0.4036 C   0  0  0  0  0  0  0  0  0  0  0  0
    8.1902   -2.8019    1.2671 C   0  0  0  0  0  0  0  0  0  0  0  0
    6.9431   -0.9740    0.1012 C   0  0  0  0  0  0  0  0  0  0  0  0
    5.6164   -1.4772    0.5265 C   0  0  0  0  0  0  0  0  0  0  0  0
    4.5534   -0.6673    0.4770 C   0  0  0  0  0  0  0  0  0  0  0  0
    3.1772   -1.0422    0.8960 C   0  0  0  0  0  0  0  0  0  0  0  0
    2.9102   -2.2592    1.7560 C   0  0  0  0  0  0  0  0  0  0  0  0
    2.1671   -0.2458    0.4823 C   0  0  0  0  0  0  0  0  0  0  0  0
    0.7370   -0.4552    0.7841 C   0  0  0  0  0  0  0  0  0  0  0  0
   -0.1704    0.4211    0.3358 C   0  0  0  0  0  0  0  0  0  0  0  0
   -1.6162    0.2446    0.5838 C   0  0  0  0  0  0  0  0  0  0  0  0
   -2.5774    0.9118   -0.0972 C   0  0  0  0  0  0  0  0  0  0  0  0
   -2.2194    1.8263   -1.2500 C   0  0  0  0  0  0  0  0  0  0  0  0
   -3.9998    0.7084    0.2963 C   0  0  0  0  0  0  0  0  0  0  0  0
   -4.9881    1.5406   -0.0573 C   0  0  0  0  0  0  0  0  0  0  0  0
   -6.3982    1.2310    0.2712 C   0  0  0  0  0  0  0  0  0  0  0  0
   -7.4533    1.8202   -0.3212 C   0  0  0  0  0  0  0  0  0  0  0  0
   -7.2807    2.8374   -1.4297 C   0  0  0  0  0  0  0  0  0  0  0  0
   -8.8168    1.3947    0.0931 C   0  0  0  0  0  0  0  0  0  0  0  0
   -9.9162    2.1406   -0.1173 C   0  0  0  0  0  0  0  0  0  0  0  0
  -11.3111    1.6556    0.0566 C   0  0  0  0  0  0  0  0  0  0  0  0
  -12.1028    1.9530   -0.8822 O   0  0  0  0  0  0  0  0  0  0  0  0
  -11.8096    0.7838    1.2334 C   0  0  2  0  0  0  0  0  0  0  0  0
  -11.0668    1.1843    2.5385 C   0  0  0  0  0  0  0  0  0  0  0  0
  -11.5621   -0.6984    0.8655 C   0  0  0  0  0  0  0  0  0  0  0  0
  -12.8078   -1.1760    0.1066 C   0  0  1  0  0  0  0  0  0  0  0  0
  -13.1985   -2.4387    0.5788 O   0  0  0  0  0  0  0  0  0  0  0  0
  -13.9122   -0.1346    0.3380 C   0  0  0  0  0  0  0  0  0  0  0  0
  -13.3863    0.8179    1.4296 C   0  0  0  0  0  0  0  0  0  0  0  0
  -13.8299    0.2415    2.8097 C   0  0  0  0  0  0  0  0  0  0  0  0
  -14.0197    2.2312    1.3104 C   0  0  0  0  0  0  0  0  0  0  0  0
   11.7165    0.1185   -1.9481 C   0  0  0  0  0  0  0  0  0  0  0  0
   11.4989    1.4602   -1.1778 C   0  0  0  0  0  0  0  0  0  0  0  0
   10.5906   -0.0779   -2.9962 C   0  0  0  0  0  0  0  0  0  0  0  0
   13.0427    0.2134   -2.7563 C   0  0  0  0  0  0  0  0  0  0  0  0
   14.2716    0.0683   -1.8573 C   0  0  2  0  0  0  0  0  0  0  0  0
   15.4610    0.2373   -2.5920 O   0  0  0  0  0  0  0  0  0  0  0  0
   14.2504   -1.2957   -1.1789 C   0  0  0  0  0  0  0  0  0  0  0  0
   12.4056   -2.4252    1.3996 H   0  0  0  0  0  0  0  0  0  0  0  0
   12.4960   -3.6625    0.0691 H   0  0  0  0  0  0  0  0  0  0  0  0
   13.9874   -2.9873    0.7826 H   0  0  0  0  0  0  0  0  0  0  0  0
   10.4154   -2.7167   -0.2813 H   0  0  0  0  0  0  0  0  0  0  0  0
    9.3339    0.1289   -0.2900 H   0  0  0  0  0  0  0  0  0  0  0  0
    9.1909   -2.8966    1.7358 H   0  0  0  0  0  0  0  0  0  0  0  0
    7.4672   -2.7384    2.1020 H   0  0  0  0  0  0  0  0  0  0  0  0
    7.9878   -3.7043    0.6563 H   0  0  0  0  0  0  0  0  0  0  0  0
    6.9588   -0.0569   -0.4861 H   0  0  0  0  0  0  0  0  0  0  0  0
    5.5193   -2.4984    0.8650 H   0  0  0  0  0  0  0  0  0  0  0  0
    4.6993    0.3341    0.0857 H   0  0  0  0  0  0  0  0  0  0  0  0
    3.8283   -2.6316    2.2557 H   0  0  0  0  0  0  0  0  0  0  0  0
    2.2048   -2.0123    2.5785 H   0  0  0  0  0  0  0  0  0  0  0  0
    2.4862   -3.0758    1.1326 H   0  0  0  0  0  0  0  0  0  0  0  0
    2.4163    0.6144   -0.1314 H   0  0  0  0  0  0  0  0  0  0  0  0
    0.4022   -1.3172    1.3436 H   0  0  0  0  0  0  0  0  0  0  0  0
    0.1685    1.2789   -0.2264 H   0  0  0  0  0  0  0  0  0  0  0  0
   -1.9094   -0.4491    1.3661 H   0  0  0  0  0  0  0  0  0  0  0  0
   -1.4170    1.3848   -1.8747 H   0  0  0  0  0  0  0  0  0  0  0  0
   -3.0720    1.9720   -1.9389 H   0  0  0  0  0  0  0  0  0  0  0  0
   -1.8892    2.8121   -0.8597 H   0  0  0  0  0  0  0  0  0  0  0  0
   -4.2421   -0.1637    0.8927 H   0  0  0  0  0  0  0  0  0  0  0  0
   -4.7594    2.4543   -0.5855 H   0  0  0  0  0  0  0  0  0  0  0  0
   -6.5713    0.4622    1.0146 H   0  0  0  0  0  0  0  0  0  0  0  0
   -7.1047    3.8443   -0.9962 H   0  0  0  0  0  0  0  0  0  0  0  0
   -8.1701    2.8713   -2.0897 H   0  0  0  0  0  0  0  0  0  0  0  0
   -6.4408    2.5630   -2.1017 H   0  0  0  0  0  0  0  0  0  0  0  0
   -8.9042    0.4234    0.5548 H   0  0  0  0  0  0  0  0  0  0  0  0
   -9.8180    3.1110   -0.5872 H   0  0  0  0  0  0  0  0  0  0  0  0
  -11.3712    2.2029    2.8597 H   0  0  0  0  0  0  0  0  0  0  0  0
   -9.9667    1.1917    2.4252 H   0  0  0  0  0  0  0  0  0  0  0  0
  -11.2715    0.4776    3.3681 H   0  0  0  0  0  0  0  0  0  0  0  0
  -11.4245   -1.3074    1.7883 H   0  0  0  0  0  0  0  0  0  0  0  0
  -10.6602   -0.8495    0.2393 H   0  0  0  0  0  0  0  0  0  0  0  0
  -12.5651   -1.2263   -0.9846 H   0  0  0  0  0  0  0  0  0  0  0  0
  -13.8241   -2.8084   -0.1005 H   0  0  0  0  0  0  0  0  0  0  0  0
  -14.8850   -0.6092    0.6097 H   0  0  0  0  0  0  0  0  0  0  0  0
  -14.0891    0.4148   -0.6138 H   0  0  0  0  0  0  0  0  0  0  0  0
  -13.5427    0.9228    3.6393 H   0  0  0  0  0  0  0  0  0  0  0  0
  -13.3926   -0.7592    2.9972 H   0  0  0  0  0  0  0  0  0  0  0  0
  -14.9366    0.1310    2.8590 H   0  0  0  0  0  0  0  0  0  0  0  0
  -13.4779    2.9593    1.9483 H   0  0  0  0  0  0  0  0  0  0  0  0
  -14.0373    2.6223    0.2712 H   0  0  0  0  0  0  0  0  0  0  0  0
  -15.0840    2.2152    1.6394 H   0  0  0  0  0  0  0  0  0  0  0  0
   10.7335    2.1018   -1.6733 H   0  0  0  0  0  0  0  0  0  0  0  0
   12.4164    2.0849   -1.1200 H   0  0  0  0  0  0  0  0  0  0  0  0
   11.1881    1.3019   -0.1213 H   0  0  0  0  0  0  0  0  0  0  0  0
   10.6621    0.6977   -3.7893 H   0  0  0  0  0  0  0  0  0  0  0  0
    9.5728    0.0104   -2.5648 H   0  0  0  0  0  0  0  0  0  0  0  0
   10.6784   -1.0721   -3.4796 H   0  0  0  0  0  0  0  0  0  0  0  0
   13.0749   -0.5857   -3.5314 H   0  0  0  0  0  0  0  0  0  0  0  0
   13.0958    1.1882   -3.2947 H   0  0  0  0  0  0  0  0  0  0  0  0
   14.2569    0.8478   -1.0647 H   0  0  0  0  0  0  0  0  0  0  0  0
   15.4306   -0.3828   -3.3621 H   0  0  0  0  0  0  0  0  0  0  0  0
   15.0521   -1.3069   -0.4123 H   0  0  0  0  0  0  0  0  0  0  0  0
   14.4834   -2.0871   -1.9247 H   0  0  0  0  0  0  0  0  0  0  0  0
  1  2  1  0
  2  3  2  0
  3  4  1  0
  4  5  2  0
  5  6  1  0
  6  7  1  0
  6  8  2  0
  8  9  1  0
  9 10  2  0
 10 11  1  0
 11 12  1  0
 11 13  2  0
 13 14  1  0
 14 15  2  0
 15 16  1  0
 16 17  2  0
 17 18  1  0
 17 19  1  0
 19 20  2  0
 20 21  1  0
 21 22  2  0
 22 23  1  0
 22 24  1  0
 24 25  2  0
 25 26  1  0
 26 27  2  0
 26 28  1  0
 28 29  1  1
 28 30  1  0
 30 31  1  0
 31 32  1  0
 31 33  1  0
 33 34  1  0
 34 35  1  0
 34 36  1  0
  3 37  1  0
 37 38  1  0
 37 39  1  0
 37 40  1  0
 40 41  1  0
 41 42  1  0
 41 43  1  0
 43  2  1  0
 34 28  1  0
  1 44  1  0
  1 45  1  0
  1 46  1  0
  4 47  1  0
  5 48  1  0
  7 49  1  0
  7 50  1  0
  7 51  1  0
  8 52  1  0
  9 53  1  0
 10 54  1  0
 12 55  1  0
 12 56  1  0
 12 57  1  0
 13 58  1  0
 14 59  1  0
 15 60  1  0
 16 61  1  0
 18 62  1  0
 18 63  1  0
 18 64  1  0
 19 65  1  0
 20 66  1  0
 21 67  1  0
 23 68  1  0
 23 69  1  0
 23 70  1  0
 24 71  1  0
 25 72  1  0
 29 73  1  0
 29 74  1  0
 29 75  1  0
 30 76  1  0
 30 77  1  0
 31 78  1  6
 32 79  1  0
 33 80  1  0
 33 81  1  0
 35 82  1  0
 35 83  1  0
 35 84  1  0
 36 85  1  0
 36 86  1  0
 36 87  1  0
 38 88  1  0
 38 89  1  0
 38 90  1  0
 39 91  1  0
 39 92  1  0
 39 93  1  0
 40 94  1  0
 40 95  1  0
 41 96  1  1
 42 97  1  0
 43 98  1  0
 43 99  1  0
M  END

     RDKit          3D

 39 39  0  0  0  0  0  0  0  0999 V2000
    2.2746   -2.0429    1.5888 C   0  0  0  0  0  0  0  0  0  0  0  0
    1.8974   -0.5835    1.4108 C   0  0  0  0  0  0  0  0  0  0  0  0
    2.1230    0.3277    2.6024 C   0  0  0  0  0  0  0  0  0  0  0  0
    1.3881   -0.0999    0.2272 C   0  0  0  0  0  0  0  0  0  0  0  0
    1.2115   -1.0446   -0.9641 C   0  0  0  0  0  0  0  0  0  0  0  0
    0.2167   -2.1642   -0.7366 C   0  0  0  0  0  0  0  0  0  0  0  0
   -1.0943   -2.0215   -0.4261 C   0  0  0  0  0  0  0  0  0  0  0  0
   -1.9290   -3.2607   -0.2277 C   0  0  0  0  0  0  0  0  0  0  0  0
   -1.7310   -0.6822   -0.1282 C   0  0  0  0  0  0  0  0  0  0  0  0
   -1.9620    0.1442   -1.3987 C   0  0  0  0  0  0  0  0  0  0  0  0
   -2.0608    1.6054   -1.0581 C   0  0  0  0  0  0  0  0  0  0  0  0
   -1.0004    2.4285   -0.8815 C   0  0  0  0  0  0  0  0  0  0  0  0
   -1.2513    3.8729   -0.5258 C   0  0  0  0  0  0  0  0  0  0  0  0
    0.4396    2.0123   -1.1498 C   0  0  0  0  0  0  0  0  0  0  0  0
    1.1490    1.4193    0.0977 C   0  0  0  0  0  0  0  0  0  0  0  0
    2.9748   -2.3683    0.7924 H   0  0  0  0  0  0  0  0  0  0  0  0
    1.3655   -2.6768    1.5813 H   0  0  0  0  0  0  0  0  0  0  0  0
    2.7871   -2.2240    2.5566 H   0  0  0  0  0  0  0  0  0  0  0  0
    2.7857    1.1751    2.3248 H   0  0  0  0  0  0  0  0  0  0  0  0
    1.1494    0.7158    2.9730 H   0  0  0  0  0  0  0  0  0  0  0  0
    2.6127   -0.2017    3.4478 H   0  0  0  0  0  0  0  0  0  0  0  0
    2.1996   -1.4981   -1.1888 H   0  0  0  0  0  0  0  0  0  0  0  0
    0.9555   -0.5486   -1.9054 H   0  0  0  0  0  0  0  0  0  0  0  0
    0.6067   -3.1701   -0.8681 H   0  0  0  0  0  0  0  0  0  0  0  0
   -2.9942   -3.0546   -0.4721 H   0  0  0  0  0  0  0  0  0  0  0  0
   -1.8563   -3.5881    0.8337 H   0  0  0  0  0  0  0  0  0  0  0  0
   -1.5855   -4.0878   -0.8905 H   0  0  0  0  0  0  0  0  0  0  0  0
   -1.1283   -0.1378    0.6217 H   0  0  0  0  0  0  0  0  0  0  0  0
   -2.7155   -0.8327    0.3668 H   0  0  0  0  0  0  0  0  0  0  0  0
   -2.9225   -0.1793   -1.8559 H   0  0  0  0  0  0  0  0  0  0  0  0
   -1.1930   -0.0254   -2.1740 H   0  0  0  0  0  0  0  0  0  0  0  0
   -3.0643    2.0007   -0.9265 H   0  0  0  0  0  0  0  0  0  0  0  0
   -1.0805    4.5082   -1.4208 H   0  0  0  0  0  0  0  0  0  0  0  0
   -2.2875    4.0423   -0.1592 H   0  0  0  0  0  0  0  0  0  0  0  0
   -0.5519    4.1857    0.2771 H   0  0  0  0  0  0  0  0  0  0  0  0
    0.5286    1.4402   -2.0848 H   0  0  0  0  0  0  0  0  0  0  0  0
    0.9945    2.9422   -1.4053 H   0  0  0  0  0  0  0  0  0  0  0  0
    0.5955    1.7761    0.9932 H   0  0  0  0  0  0  0  0  0  0  0  0
    2.1528    1.8960    0.1529 H   0  0  0  0  0  0  0  0  0  0  0  0
  1  2  1  0
  2  3  1  0
  2  4  2  3
  4  5  1  0
  5  6  1  0
  6  7  2  0
  7  8  1  0
  7  9  1  0
  9 10  1  0
 10 11  1  0
 11 12  2  0
 12 13  1  0
 12 14  1  0
 14 15  1  0
 15  4  1  0
  1 16  1  0
  1 17  1  0
  1 18  1  0
  3 19  1  0
  3 20  1  0
  3 21  1  0
  5 22  1  0
  5 23  1  0
  6 24  1  0
  8 25  1  0
  8 26  1  0
  8 27  1  0
  9 28  1  0
  9 29  1  0
 10 30  1  0
 10 31  1  0
 11 32  1  0
 13 33  1  0
 13 34  1  0
 13 35  1  0
 14 36  1  0
 14 37  1  0
 15 38  1  0
 15 39  1  0
M  END

     RDKit          3D

 99100  0  0  0  0  0  0  0  0999 V2000
    9.7689    0.6048   -2.5506 C   0  0  0  0  0  0  0  0  0  0  0  0
   10.4126    1.7290   -1.7719 C   0  0  0  0  0  0  0  0  0  0  0  0
    9.8235    2.2700   -0.6747 C   0  0  0  0  0  0  0  0  0  0  0  0
    8.4229    1.9126   -0.3820 C   0  0  0  0  0  0  0  0  0  0  0  0
    8.0996    0.7207    0.1693 C   0  0  0  0  0  0  0  0  0  0  0  0
    6.7462    0.1066    0.0498 C   0  0  0  0  0  0  0  0  0  0  0  0
    5.7959    0.5453   -1.0560 C   0  0  0  0  0  0  0  0  0  0  0  0
    6.4820   -0.9675    0.8165 C   0  0  0  0  0  0  0  0  0  0  0  0
    5.2085   -1.7191    0.7139 C   0  0  0  0  0  0  0  0  0  0  0  0
    4.6555   -2.2818    1.7858 C   0  0  0  0  0  0  0  0  0  0  0  0
    3.2006   -2.5174    1.8334 C   0  0  0  0  0  0  0  0  0  0  0  0
    2.2522   -1.6470    1.0357 C   0  0  0  0  0  0  0  0  0  0  0  0
    2.7081   -3.4444    2.6890 C   0  0  0  0  0  0  0  0  0  0  0  0
    1.2804   -3.3962    3.0765 C   0  0  0  0  0  0  0  0  0  0  0  0
    0.3402   -3.9999    2.3411 C   0  0  0  0  0  0  0  0  0  0  0  0
   -1.0320   -3.4402    2.3562 C   0  0  0  0  0  0  0  0  0  0  0  0
   -2.0515   -3.8485    1.5770 C   0  0  0  0  0  0  0  0  0  0  0  0
   -2.0063   -5.1560    0.8013 C   0  0  0  0  0  0  0  0  0  0  0  0
   -3.2370   -2.9540    1.4946 C   0  0  0  0  0  0  0  0  0  0  0  0
   -4.3149   -3.1699    0.7134 C   0  0  0  0  0  0  0  0  0  0  0  0
   -5.4399   -2.2041    0.7166 C   0  0  0  0  0  0  0  0  0  0  0  0
   -6.4991   -2.2839   -0.1125 C   0  0  0  0  0  0  0  0  0  0  0  0
   -6.6189   -3.3604   -1.1586 C   0  0  0  0  0  0  0  0  0  0  0  0
   -7.5193   -1.2285   -0.0878 C   0  0  0  0  0  0  0  0  0  0  0  0
   -8.4024   -1.1647    0.9120 C   0  0  0  0  0  0  0  0  0  0  0  0
   -9.5227   -0.1945    0.9616 C   0  0  0  0  0  0  0  0  0  0  0  0
   -9.7495    0.2998    2.0928 O   0  0  0  0  0  0  0  0  0  0  0  0
  -10.2742    0.3601   -0.2732 C   0  0  2  0  0  0  0  0  0  0  0  0
  -10.4681   -0.7580   -1.3441 C   0  0  0  0  0  0  0  0  0  0  0  0
   -9.4459    1.5663   -0.8003 C   0  0  0  0  0  0  0  0  0  0  0  0
  -10.0231    2.8361   -0.1471 C   0  0  1  0  0  0  0  0  0  0  0  0
  -10.3404    3.7744   -1.1452 O   0  0  0  0  0  0  0  0  0  0  0  0
  -11.2806    2.4159    0.6125 C   0  0  0  0  0  0  0  0  0  0  0  0
  -11.6610    1.0380    0.0540 C   0  0  0  0  0  0  0  0  0  0  0  0
  -12.5211    1.2877   -1.2392 C   0  0  0  0  0  0  0  0  0  0  0  0
  -12.5588    0.2528    1.0412 C   0  0  0  0  0  0  0  0  0  0  0  0
   10.4678    3.4356    0.0687 C   0  0  0  0  0  0  0  0  0  0  0  0
   10.0389    4.7919   -0.5400 C   0  0  0  0  0  0  0  0  0  0  0  0
   10.0695    3.4195    1.5713 C   0  0  0  0  0  0  0  0  0  0  0  0
   12.0103    3.2760    0.0140 C   0  0  0  0  0  0  0  0  0  0  0  0
   12.5619    3.1261   -1.4248 C   0  0  1  0  0  0  0  0  0  0  0  0
   13.8060    2.4733   -1.3932 O   0  0  0  0  0  0  0  0  0  0  0  0
   11.6065    2.4026   -2.4071 C   0  0  0  0  0  0  0  0  0  0  0  0
    8.9219    1.0139   -3.1444 H   0  0  0  0  0  0  0  0  0  0  0  0
    9.3923   -0.1810   -1.8661 H   0  0  0  0  0  0  0  0  0  0  0  0
   10.4976    0.1180   -3.2175 H   0  0  0  0  0  0  0  0  0  0  0  0
    7.6776    2.5940   -0.7553 H   0  0  0  0  0  0  0  0  0  0  0  0
    8.9083    0.1237    0.5913 H   0  0  0  0  0  0  0  0  0  0  0  0
    5.9691    1.5664   -1.4437 H   0  0  0  0  0  0  0  0  0  0  0  0
    5.8824   -0.1516   -1.9160 H   0  0  0  0  0  0  0  0  0  0  0  0
    4.7515    0.5584   -0.6968 H   0  0  0  0  0  0  0  0  0  0  0  0
    7.1843   -1.2546    1.5828 H   0  0  0  0  0  0  0  0  0  0  0  0
    4.6497   -1.6810   -0.2157 H   0  0  0  0  0  0  0  0  0  0  0  0
    5.2318   -2.3675    2.6917 H   0  0  0  0  0  0  0  0  0  0  0  0
    2.7683   -0.7719    0.5830 H   0  0  0  0  0  0  0  0  0  0  0  0
    1.7914   -2.2504    0.2204 H   0  0  0  0  0  0  0  0  0  0  0  0
    1.4536   -1.2256    1.6794 H   0  0  0  0  0  0  0  0  0  0  0  0
    3.3695   -4.0740    3.2744 H   0  0  0  0  0  0  0  0  0  0  0  0
    0.9929   -2.5670    3.7296 H   0  0  0  0  0  0  0  0  0  0  0  0
    0.6267   -4.7848    1.6365 H   0  0  0  0  0  0  0  0  0  0  0  0
   -1.1699   -2.5429    2.9603 H   0  0  0  0  0  0  0  0  0  0  0  0
   -1.2462   -5.8548    1.2096 H   0  0  0  0  0  0  0  0  0  0  0  0
   -1.7901   -4.9608   -0.2755 H   0  0  0  0  0  0  0  0  0  0  0  0
   -2.9802   -5.6824    0.9048 H   0  0  0  0  0  0  0  0  0  0  0  0
   -3.2167   -2.0284    2.0669 H   0  0  0  0  0  0  0  0  0  0  0  0
   -4.3671   -4.0598    0.0934 H   0  0  0  0  0  0  0  0  0  0  0  0
   -5.3902   -1.3657    1.3999 H   0  0  0  0  0  0  0  0  0  0  0  0
   -6.5054   -4.3688   -0.6970 H   0  0  0  0  0  0  0  0  0  0  0  0
   -7.6357   -3.3360   -1.6220 H   0  0  0  0  0  0  0  0  0  0  0  0
   -5.8595   -3.2171   -1.9666 H   0  0  0  0  0  0  0  0  0  0  0  0
   -7.6141   -0.6066   -0.9785 H   0  0  0  0  0  0  0  0  0  0  0  0
   -8.2660   -1.8053    1.7784 H   0  0  0  0  0  0  0  0  0  0  0  0
  -10.6436   -0.3300   -2.3711 H   0  0  0  0  0  0  0  0  0  0  0  0
   -9.6168   -1.4685   -1.4339 H   0  0  0  0  0  0  0  0  0  0  0  0
  -11.3378   -1.3922   -1.0796 H   0  0  0  0  0  0  0  0  0  0  0  0
   -8.3575    1.4899   -0.5612 H   0  0  0  0  0  0  0  0  0  0  0  0
   -9.5156    1.6419   -1.9119 H   0  0  0  0  0  0  0  0  0  0  0  0
   -9.2667    3.2716    0.5623 H   0  0  0  0  0  0  0  0  0  0  0  0
  -10.5111    4.6472   -0.6659 H   0  0  0  0  0  0  0  0  0  0  0  0
  -11.0389    2.3403    1.7010 H   0  0  0  0  0  0  0  0  0  0  0  0
  -12.0985    3.1672    0.5316 H   0  0  0  0  0  0  0  0  0  0  0  0
  -12.9251    0.3347   -1.6457 H   0  0  0  0  0  0  0  0  0  0  0  0
  -13.3943    1.9377   -1.0209 H   0  0  0  0  0  0  0  0  0  0  0  0
  -11.9316    1.7737   -2.0442 H   0  0  0  0  0  0  0  0  0  0  0  0
  -12.8681   -0.7313    0.6082 H   0  0  0  0  0  0  0  0  0  0  0  0
  -12.0662    0.0636    2.0206 H   0  0  0  0  0  0  0  0  0  0  0  0
  -13.4912    0.8443    1.2699 H   0  0  0  0  0  0  0  0  0  0  0  0
   10.6780    5.6168   -0.1579 H   0  0  0  0  0  0  0  0  0  0  0  0
   10.1159    4.7728   -1.6537 H   0  0  0  0  0  0  0  0  0  0  0  0
    8.9787    5.0236   -0.2733 H   0  0  0  0  0  0  0  0  0  0  0  0
   10.3207    2.4425    2.0281 H   0  0  0  0  0  0  0  0  0  0  0  0
   10.6096    4.2162    2.1293 H   0  0  0  0  0  0  0  0  0  0  0  0
    8.9769    3.5965    1.7003 H   0  0  0  0  0  0  0  0  0  0  0  0
   12.2845    2.3578    0.5913 H   0  0  0  0  0  0  0  0  0  0  0  0
   12.5142    4.1283    0.5107 H   0  0  0  0  0  0  0  0  0  0  0  0
   12.7304    4.1557   -1.8240 H   0  0  0  0  0  0  0  0  0  0  0  0
   13.6593    1.5480   -1.0663 H   0  0  0  0  0  0  0  0  0  0  0  0
   12.1716    1.6656   -3.0115 H   0  0  0  0  0  0  0  0  0  0  0  0
   11.2039    3.1404   -3.1364 H   0  0  0  0  0  0  0  0  0  0  0  0
  1  2  1  0
  2  3  2  0
  3  4  1  0
  4  5  2  0
  5  6  1  0
  6  7  1  0
  6  8  2  0
  8  9  1  0
  9 10  2  0
 10 11  1  0
 11 12  1  0
 11 13  2  0
 13 14  1  0
 14 15  2  0
 15 16  1  0
 16 17  2  0
 17 18  1  0
 17 19  1  0
 19 20  2  0
 20 21  1  0
 21 22  2  0
 22 23  1  0
 22 24  1  0
 24 25  2  0
 25 26  1  0
 26 27  2  0
 26 28  1  0
 28 29  1  6
 28 30  1  0
 30 31  1  0
 31 32  1  0
 31 33  1  0
 33 34  1  0
 34 35  1  0
 34 36  1  0
  3 37  1  0
 37 38  1  0
 37 39  1  0
 37 40  1  0
 40 41  1  0
 41 42  1  0
 41 43  1  0
 43  2  1  0
 34 28  1  0
  1 44  1  0
  1 45  1  0
  1 46  1  0
  4 47  1  0
  5 48  1  0
  7 49  1  0
  7 50  1  0
  7 51  1  0
  8 52  1  0
  9 53  1  0
 10 54  1  0
 12 55  1  0
 12 56  1  0
 12 57  1  0
 13 58  1  0
 14 59  1  0
 15 60  1  0
 16 61  1  0
 18 62  1  0
 18 63  1  0
 18 64  1  0
 19 65  1  0
 20 66  1  0
 21 67  1  0
 23 68  1  0
 23 69  1  0
 23 70  1  0
 24 71  1  0
 25 72  1  0
 29 73  1  0
 29 74  1  0
 29 75  1  0
 30 76  1  0
 30 77  1  0
 31 78  1  1
 32 79  1  0
 33 80  1  0
 33 81  1  0
 35 82  1  0
 35 83  1  0
 35 84  1  0
 36 85  1  0
 36 86  1  0
 36 87  1  0
 38 88  1  0
 38 89  1  0
 38 90  1  0
 39 91  1  0
 39 92  1  0
 39 93  1  0
 40 94  1  0
 40 95  1  0
 41 96  1  6
 42 97  1  0
 43 98  1  0
 43 99  1  0
M  END

     RDKit          3D

 40 42  0  0  0  0  0  0  0  0999 V2000
   -0.4727    2.0902   -1.2500 C   0  0  0  0  0  0  0  0  0  0  0  0
    0.0492    1.6852   -0.0769 C   0  0  0  0  0  0  0  0  0  0  0  0
    1.3702    2.2961    0.3789 C   0  0  0  0  0  0  0  0  0  0  0  0
    2.5737    1.9264   -0.5229 C   0  0  0  0  0  0  0  0  0  0  0  0
    2.3858    0.5681   -1.2072 C   0  0  1  0  0  0  0  0  0  0  0  0
    3.4470   -0.3535   -1.1118 O   0  0  0  0  0  0  0  0  0  0  0  0
    2.3105   -0.6205   -0.3106 C   0  0  1  0  0  0  0  0  0  0  0  0
    2.7155   -0.6242    1.1709 C   0  0  0  0  0  0  0  0  0  0  0  0
    1.3948   -1.7383   -0.8260 C   0  0  0  0  0  0  0  0  0  0  0  0
   -0.0784   -1.2848   -0.9486 C   0  0  0  0  0  0  0  0  0  0  0  0
   -0.7108   -0.8351    0.3982 C   0  0  1  0  0  0  0  0  0  0  0  0
   -0.6361    0.6543    0.8306 C   0  0  2  0  0  0  0  0  0  0  0  0
   -2.1682    0.7229    0.8931 C   0  0  0  0  0  0  0  0  0  0  0  0
   -2.2618   -0.7485    0.4495 C   0  0  0  0  0  0  0  0  0  0  0  0
   -2.8687   -1.6514    1.5394 C   0  0  0  0  0  0  0  0  0  0  0  0
   -3.0168   -0.9120   -0.8861 C   0  0  0  0  0  0  0  0  0  0  0  0
    0.0398    2.8324   -1.8546 H   0  0  0  0  0  0  0  0  0  0  0  0
   -1.3938    1.6845   -1.6439 H   0  0  0  0  0  0  0  0  0  0  0  0
    1.6002    1.9794    1.4172 H   0  0  0  0  0  0  0  0  0  0  0  0
    1.2677    3.4024    0.4156 H   0  0  0  0  0  0  0  0  0  0  0  0
    2.6626    2.6904   -1.3245 H   0  0  0  0  0  0  0  0  0  0  0  0
    3.5200    1.9683    0.0570 H   0  0  0  0  0  0  0  0  0  0  0  0
    1.8869    0.5207   -2.1987 H   0  0  0  0  0  0  0  0  0  0  0  0
    3.4981    0.1281    1.3973 H   0  0  0  0  0  0  0  0  0  0  0  0
    1.8368   -0.4350    1.8154 H   0  0  0  0  0  0  0  0  0  0  0  0
    3.1273   -1.6210    1.4337 H   0  0  0  0  0  0  0  0  0  0  0  0
    1.7436   -2.0818   -1.8249 H   0  0  0  0  0  0  0  0  0  0  0  0
    1.4547   -2.6155   -0.1460 H   0  0  0  0  0  0  0  0  0  0  0  0
   -0.1843   -0.5128   -1.7340 H   0  0  0  0  0  0  0  0  0  0  0  0
   -0.6366   -2.1737   -1.3105 H   0  0  0  0  0  0  0  0  0  0  0  0
   -0.3277   -1.4868    1.2165 H   0  0  0  0  0  0  0  0  0  0  0  0
   -0.2352    0.7212    1.8661 H   0  0  0  0  0  0  0  0  0  0  0  0
   -2.5274    0.8954    1.9322 H   0  0  0  0  0  0  0  0  0  0  0  0
   -2.6411    1.4389    0.1895 H   0  0  0  0  0  0  0  0  0  0  0  0
   -2.7607   -2.7184    1.2501 H   0  0  0  0  0  0  0  0  0  0  0  0
   -3.9481   -1.4231    1.6688 H   0  0  0  0  0  0  0  0  0  0  0  0
   -2.3609   -1.4995    2.5166 H   0  0  0  0  0  0  0  0  0  0  0  0
   -2.5779   -0.2884   -1.6896 H   0  0  0  0  0  0  0  0  0  0  0  0
   -4.0772   -0.6069   -0.7583 H   0  0  0  0  0  0  0  0  0  0  0  0
   -3.0000   -1.9736   -1.2113 H   0  0  0  0  0  0  0  0  0  0  0  0
  1  2  2  3
  2  3  1  0
  3  4  1  0
  4  5  1  0
  5  6  1  0
  6  7  1  0
  7  8  1  1
  7  9  1  0
  9 10  1  0
 10 11  1  0
 11 12  1  0
 12 13  1  0
 13 14  1  0
 14 15  1  0
 14 16  1  0
 12  2  1  0
  7  5  1  0
 14 11  1  0
  1 17  1  0
  1 18  1  0
  3 19  1  0
  3 20  1  0
  4 21  1  0
  4 22  1  0
  5 23  1  6
  8 24  1  0
  8 25  1  0
  8 26  1  0
  9 27  1  0
  9 28  1  0
 10 29  1  0
 10 30  1  0
 11 31  1  1
 12 32  1  1
 13 33  1  0
 13 34  1  0
 15 35  1  0
 15 36  1  0
 15 37  1  0
 16 38  1  0
 16 39  1  0
 16 40  1  0
M  END

     RDKit          3D

 37 39  0  0  0  0  0  0  0  0999 V2000
    4.5687   -1.1357   -1.0490 C   0  0  0  0  0  0  0  0  0  0  0  0
    3.5053   -1.5440   -0.1987 O   0  0  0  0  0  0  0  0  0  0  0  0
    2.3023   -0.8362   -0.1561 C   0  0  0  0  0  0  0  0  0  0  0  0
    1.2138   -1.2578   -0.9179 C   0  0  0  0  0  0  0  0  0  0  0  0
    1.0720   -2.3347   -1.7636 C   0  0  0  0  0  0  0  0  0  0  0  0
   -0.2326   -2.2394   -2.2353 C   0  0  0  0  0  0  0  0  0  0  0  0
   -0.8329   -1.1843   -1.7170 O   0  0  0  0  0  0  0  0  0  0  0  0
    0.0230   -0.5834   -0.9250 C   0  0  0  0  0  0  0  0  0  0  0  0
   -0.1789    0.5775   -0.1699 C   0  0  0  0  0  0  0  0  0  0  0  0
   -1.5094    1.2835   -0.1850 C   0  0  0  0  0  0  0  0  0  0  0  0
   -2.3864    0.7534    0.9237 C   0  0  0  0  0  0  0  0  0  0  0  0
   -3.5890    0.1617    0.7460 C   0  0  0  0  0  0  0  0  0  0  0  0
   -4.1981   -0.0284   -0.6234 C   0  0  0  0  0  0  0  0  0  0  0  0
   -4.3387   -0.3136    1.9643 C   0  0  0  0  0  0  0  0  0  0  0  0
    0.8922    1.0218    0.6447 C   0  0  0  0  0  0  0  0  0  0  0  0
    0.7423    2.1020    1.4100 O   0  0  0  0  0  0  0  0  0  0  0  0
    1.7055    2.5663    2.2012 C   0  0  0  0  0  0  0  0  0  0  0  0
    1.4973    3.5938    2.8975 O   0  0  0  0  0  0  0  0  0  0  0  0
    2.9425    1.9200    2.2660 C   0  0  0  0  0  0  0  0  0  0  0  0
    3.1566    0.7867    1.4851 C   0  0  0  0  0  0  0  0  0  0  0  0
    2.1342    0.3149    0.6518 C   0  0  0  0  0  0  0  0  0  0  0  0
    5.3957   -1.8744   -0.9816 H   0  0  0  0  0  0  0  0  0  0  0  0
    4.9481   -0.1382   -0.7345 H   0  0  0  0  0  0  0  0  0  0  0  0
    4.2149   -1.0800   -2.1023 H   0  0  0  0  0  0  0  0  0  0  0  0
    1.8087   -3.0914   -2.0046 H   0  0  0  0  0  0  0  0  0  0  0  0
   -0.7042   -2.9234   -2.9277 H   0  0  0  0  0  0  0  0  0  0  0  0
   -1.3626    2.3724   -0.0273 H   0  0  0  0  0  0  0  0  0  0  0  0
   -1.9725    1.1837   -1.1873 H   0  0  0  0  0  0  0  0  0  0  0  0
   -2.0093    0.8734    1.9376 H   0  0  0  0  0  0  0  0  0  0  0  0
   -4.3527    0.9595   -1.1079 H   0  0  0  0  0  0  0  0  0  0  0  0
   -5.1854   -0.5316   -0.5649 H   0  0  0  0  0  0  0  0  0  0  0  0
   -3.5313   -0.6555   -1.2520 H   0  0  0  0  0  0  0  0  0  0  0  0
   -4.5597    0.5500    2.6231 H   0  0  0  0  0  0  0  0  0  0  0  0
   -3.7201   -1.0465    2.5231 H   0  0  0  0  0  0  0  0  0  0  0  0
   -5.2998   -0.7984    1.6973 H   0  0  0  0  0  0  0  0  0  0  0  0
    3.7274    2.2920    2.9147 H   0  0  0  0  0  0  0  0  0  0  0  0
    4.1133    0.2842    1.5380 H   0  0  0  0  0  0  0  0  0  0  0  0
  1  2  1  0
  2  3  1  0
  3  4  2  0
  4  5  1  0
  5  6  2  0
  6  7  1  0
  7  8  1  0
  8  9  2  0
  9 10  1  0
 10 11  1  0
 11 12  2  3
 12 13  1  0
 12 14  1  0
  9 15  1  0
 15 16  1  0
 16 17  1  0
 17 18  2  0
 17 19  1  0
 19 20  2  0
 20 21  1  0
 21  3  1  0
  8  4  1  0
 21 15  2  0
  1 22  1  0
  1 23  1  0
  1 24  1  0
  5 25  1  0
  6 26  1  0
 10 27  1  0
 10 28  1  0
 11 29  1  0
 13 30  1  0
 13 31  1  0
 13 32  1  0
 14 33  1  0
 14 34  1  0
 14 35  1  0
 19 36  1  0
 20 37  1  0
M  END

     RDKit          3D

 32 34  0  0  0  0  0  0  0  0999 V2000
    6.0299    0.0518    0.0265 C   0  0  0  0  0  0  0  0  0  0  0  0
    4.8241   -0.6730   -0.1936 O   0  0  0  0  0  0  0  0  0  0  0  0
    3.5383   -0.1208   -0.0942 C   0  0  0  0  0  0  0  0  0  0  0  0
    3.3210    1.2272    0.2396 C   0  0  0  0  0  0  0  0  0  0  0  0
    2.0216    1.7306    0.3258 C   0  0  0  0  0  0  0  0  0  0  0  0
    0.9159    0.8976    0.0833 C   0  0  0  0  0  0  0  0  0  0  0  0
    1.1254   -0.4535   -0.2504 C   0  0  0  0  0  0  0  0  0  0  0  0
    2.4387   -0.9501   -0.3388 C   0  0  0  0  0  0  0  0  0  0  0  0
   -0.0338   -1.3327   -0.5300 C   0  0  0  0  0  0  0  0  0  0  0  0
    0.1633   -2.4435   -1.0914 O   0  0  0  0  0  0  0  0  0  0  0  0
   -1.4188   -0.8638   -0.2372 C   0  0  0  0  0  0  0  0  0  0  0  0
   -2.5449   -1.7320   -0.2557 C   0  0  0  0  0  0  0  0  0  0  0  0
   -2.4356   -3.1219   -0.3434 O   0  0  0  0  0  0  0  0  0  0  0  0
   -3.8340   -1.2023   -0.1449 C   0  0  0  0  0  0  0  0  0  0  0  0
   -4.0347    0.1679    0.0424 C   0  0  0  0  0  0  0  0  0  0  0  0
   -5.4229    0.7104    0.2167 C   0  0  0  0  0  0  0  0  0  0  0  0
   -2.9285    1.0141    0.1625 C   0  0  0  0  0  0  0  0  0  0  0  0
   -1.6224    0.5133    0.0244 C   0  0  0  0  0  0  0  0  0  0  0  0
   -0.4624    1.4278    0.1645 C   0  0  0  0  0  0  0  0  0  0  0  0
   -0.6499    2.6595    0.3659 O   0  0  0  0  0  0  0  0  0  0  0  0
    6.0562    0.4430    1.0656 H   0  0  0  0  0  0  0  0  0  0  0  0
    6.1105    0.8883   -0.6995 H   0  0  0  0  0  0  0  0  0  0  0  0
    6.8935   -0.6289   -0.1187 H   0  0  0  0  0  0  0  0  0  0  0  0
    4.1493    1.8949    0.4337 H   0  0  0  0  0  0  0  0  0  0  0  0
    1.8829    2.7731    0.5839 H   0  0  0  0  0  0  0  0  0  0  0  0
    2.6155   -1.9877   -0.5951 H   0  0  0  0  0  0  0  0  0  0  0  0
   -1.5872   -3.6327   -0.1459 H   0  0  0  0  0  0  0  0  0  0  0  0
   -4.6852   -1.8723   -0.1760 H   0  0  0  0  0  0  0  0  0  0  0  0
   -5.6965    0.6862    1.2922 H   0  0  0  0  0  0  0  0  0  0  0  0
   -5.4828    1.7576   -0.1493 H   0  0  0  0  0  0  0  0  0  0  0  0
   -6.1559    0.1047   -0.3577 H   0  0  0  0  0  0  0  0  0  0  0  0
   -3.0903    2.0672    0.3594 H   0  0  0  0  0  0  0  0  0  0  0  0
  1  2  1  0
  2  3  1  0
  3  4  2  0
  4  5  1  0
  5  6  2  0
  6  7  1  0
  7  8  2  0
  7  9  1  0
  9 10  2  0
  9 11  1  0
 11 12  2  0
 12 13  1  0
 12 14  1  0
 14 15  2  0
 15 16  1  0
 15 17  1  0
 17 18  2  0
 18 19  1  0
 19 20  2  0
  8  3  1  0
 18 11  1  0
 19  6  1  0
  1 21  1  0
  1 22  1  0
  1 23  1  0
  4 24  1  0
  5 25  1  0
  8 26  1  0
 13 27  1  0
 14 28  1  0
 16 29  1  0
 16 30  1  0
 16 31  1  0
 17 32  1  0
M  END

     RDKit          3D

 28 30  0  0  0  0  0  0  0  0999 V2000
   -4.6266    0.8623    0.1509 C   0  0  0  0  0  0  0  0  0  0  0  0
   -3.2426    0.2828    0.1279 C   0  0  0  0  0  0  0  0  0  0  0  0
   -3.0586   -1.0974   -0.0009 C   0  0  0  0  0  0  0  0  0  0  0  0
   -1.7763   -1.6581   -0.0393 C   0  0  0  0  0  0  0  0  0  0  0  0
   -1.7089   -3.0544   -0.0595 O   0  0  0  0  0  0  0  0  0  0  0  0
   -0.6323   -0.8046   -0.0296 C   0  0  0  0  0  0  0  0  0  0  0  0
    0.7044   -1.2525   -0.1847 C   0  0  0  0  0  0  0  0  0  0  0  0
    0.9653   -2.4630   -0.4166 O   0  0  0  0  0  0  0  0  0  0  0  0
    1.7611   -0.3259   -0.1156 C   0  0  0  0  0  0  0  0  0  0  0  0
    3.1098   -0.7181   -0.2301 C   0  0  0  0  0  0  0  0  0  0  0  0
    4.1329    0.2382   -0.1574 C   0  0  0  0  0  0  0  0  0  0  0  0
    5.4687   -0.1420   -0.2665 O   0  0  0  0  0  0  0  0  0  0  0  0
    3.8141    1.5869    0.0262 C   0  0  0  0  0  0  0  0  0  0  0  0
    2.4800    1.9858    0.1354 C   0  0  0  0  0  0  0  0  0  0  0  0
    1.4534    1.0382    0.0639 C   0  0  0  0  0  0  0  0  0  0  0  0
    0.1923    1.4345    0.1555 O   0  0  0  0  0  0  0  0  0  0  0  0
   -0.8359    0.5954    0.1067 C   0  0  0  0  0  0  0  0  0  0  0  0
   -2.1274    1.1222    0.1824 C   0  0  0  0  0  0  0  0  0  0  0  0
   -4.6488    1.8036    0.7405 H   0  0  0  0  0  0  0  0  0  0  0  0
   -5.3423    0.1509    0.6155 H   0  0  0  0  0  0  0  0  0  0  0  0
   -4.9534    1.0780   -0.8877 H   0  0  0  0  0  0  0  0  0  0  0  0
   -3.9213   -1.7522   -0.0392 H   0  0  0  0  0  0  0  0  0  0  0  0
   -0.9009   -3.5955    0.2085 H   0  0  0  0  0  0  0  0  0  0  0  0
    3.3727   -1.7594   -0.3714 H   0  0  0  0  0  0  0  0  0  0  0  0
    5.7349   -1.1106   -0.4001 H   0  0  0  0  0  0  0  0  0  0  0  0
    4.6021    2.3272    0.0822 H   0  0  0  0  0  0  0  0  0  0  0  0
    2.2435    3.0335    0.2731 H   0  0  0  0  0  0  0  0  0  0  0  0
   -2.2599    2.1941    0.2713 H   0  0  0  0  0  0  0  0  0  0  0  0
  1  2  1  0
  2  3  2  0
  3  4  1  0
  4  5  1  0
  4  6  2  0
  6  7  1  0
  7  8  2  0
  7  9  1  0
  9 10  2  0
 10 11  1  0
 11 12  1  0
 11 13  2  0
 13 14  1  0
 14 15  2  0
 15 16  1  0
 16 17  1  0
 17 18  2  0
 18  2  1  0
 17  6  1  0
 15  9  1  0
  1 19  1  0
  1 20  1  0
  1 21  1  0
  3 22  1  0
  5 23  1  0
 10 24  1  0
 12 25  1  0
 13 26  1  0
 14 27  1  0
 18 28  1  0
M  END

     RDKit          3D

 31 33  0  0  0  0  0  0  0  0999 V2000
   -1.6987   -3.4060    2.6453 O   0  0  0  0  0  0  0  0  0  0  0  0
   -1.5805   -2.4039    1.8927 C   0  0  0  0  0  0  0  0  0  0  0  0
   -0.3137   -1.9157    1.5777 C   0  0  0  0  0  0  0  0  0  0  0  0
   -0.1923   -0.8057    0.7338 C   0  0  0  0  0  0  0  0  0  0  0  0
    1.1708   -0.3638    0.3803 C   0  0  0  0  0  0  0  0  0  0  0  0
    1.9560    0.3176    1.3202 C   0  0  0  0  0  0  0  0  0  0  0  0
    3.2516    0.7232    0.9899 C   0  0  0  0  0  0  0  0  0  0  0  0
    3.7781    0.4438   -0.2794 C   0  0  0  0  0  0  0  0  0  0  0  0
    5.0700    0.8521   -0.6073 O   0  0  0  0  0  0  0  0  0  0  0  0
    2.9980   -0.2511   -1.2204 C   0  0  0  0  0  0  0  0  0  0  0  0
    3.4938   -0.5479   -2.4895 O   0  0  0  0  0  0  0  0  0  0  0  0
    1.7008   -0.6560   -0.8854 C   0  0  0  0  0  0  0  0  0  0  0  0
   -1.3687   -0.1851    0.2364 C   0  0  0  0  0  0  0  0  0  0  0  0
   -1.3689    0.9752   -0.5824 C   0  0  0  0  0  0  0  0  0  0  0  0
   -0.1825    1.6194   -0.9321 O   0  0  0  0  0  0  0  0  0  0  0  0
   -2.5841    1.5041   -1.0424 C   0  0  0  0  0  0  0  0  0  0  0  0
   -3.7992    0.9165   -0.6895 C   0  0  0  0  0  0  0  0  0  0  0  0
   -4.9899    1.4650   -1.1610 O   0  0  0  0  0  0  0  0  0  0  0  0
   -3.8124   -0.2104    0.1359 C   0  0  0  0  0  0  0  0  0  0  0  0
   -2.6152   -0.7588    0.6039 C   0  0  0  0  0  0  0  0  0  0  0  0
   -2.6656   -1.8221    1.4001 O   0  0  0  0  0  0  0  0  0  0  0  0
    0.5687   -2.4064    1.9733 H   0  0  0  0  0  0  0  0  0  0  0  0
    1.5620    0.5389    2.3046 H   0  0  0  0  0  0  0  0  0  0  0  0
    3.8467    1.2545    1.7217 H   0  0  0  0  0  0  0  0  0  0  0  0
    5.6515    1.3541    0.0536 H   0  0  0  0  0  0  0  0  0  0  0  0
    4.4256   -0.2768   -2.7799 H   0  0  0  0  0  0  0  0  0  0  0  0
    1.1036   -1.1931   -1.6125 H   0  0  0  0  0  0  0  0  0  0  0  0
   -0.1749    2.4500   -1.5125 H   0  0  0  0  0  0  0  0  0  0  0  0
   -2.5853    2.3848   -1.6726 H   0  0  0  0  0  0  0  0  0  0  0  0
   -5.8896    1.0650   -0.9207 H   0  0  0  0  0  0  0  0  0  0  0  0
   -4.7558   -0.6614    0.4181 H   0  0  0  0  0  0  0  0  0  0  0  0
  1  2  2  0
  2  3  1  0
  3  4  2  0
  4  5  1  0
  5  6  2  0
  6  7  1  0
  7  8  2  0
  8  9  1  0
  8 10  1  0
 10 11  1  0
 10 12  2  0
  4 13  1  0
 13 14  2  0
 14 15  1  0
 14 16  1  0
 16 17  2  0
 17 18  1  0
 17 19  1  0
 19 20  2  0
 20 21  1  0
 21  2  1  0
 12  5  1  0
 20 13  1  0
  3 22  1  0
  6 23  1  0
  7 24  1  0
  9 25  1  0
 11 26  1  0
 12 27  1  0
 15 28  1  0
 16 29  1  0
 18 30  1  0
 19 31  1  0
M  END

     RDKit          3D

 40 43  0  0  0  0  0  0  0  0999 V2000
    5.5617    2.0061    0.7263 C   0  0  0  0  0  0  0  0  0  0  0  0
    4.1386    2.0660    0.7279 O   0  0  0  0  0  0  0  0  0  0  0  0
    3.2911    1.0068    0.3637 C   0  0  0  0  0  0  0  0  0  0  0  0
    3.8016   -0.2248   -0.0710 C   0  0  0  0  0  0  0  0  0  0  0  0
    2.9417   -1.2781   -0.3856 C   0  0  0  0  0  0  0  0  0  0  0  0
    3.4583   -2.5366   -0.7218 C   0  0  0  0  0  0  0  0  0  0  0  0
    2.5840   -3.5910   -0.9769 C   0  0  0  0  0  0  0  0  0  0  0  0
    1.2442   -3.3993   -0.8884 N   0  0  0  0  0  0  0  0  0  0  0  0
    0.7055   -2.1884   -0.5801 C   0  0  0  0  0  0  0  0  0  0  0  0
    1.5430   -1.0825   -0.3392 C   0  0  0  0  0  0  0  0  0  0  0  0
    1.0042    0.1880   -0.0146 C   0  0  0  0  0  0  0  0  0  0  0  0
    1.8981    1.1961    0.4446 C   0  0  0  0  0  0  0  0  0  0  0  0
    1.4094    2.3631    1.0292 O   0  0  0  0  0  0  0  0  0  0  0  0
   -0.4888    0.4011   -0.1353 C   0  0  0  0  0  0  0  0  0  0  0  0
   -1.0588    1.6892   -0.1959 C   0  0  0  0  0  0  0  0  0  0  0  0
   -2.4408    1.8652   -0.2190 C   0  0  0  0  0  0  0  0  0  0  0  0
   -3.2999    0.7587   -0.2537 C   0  0  0  0  0  0  0  0  0  0  0  0
   -4.6953    0.9059   -0.2898 O   0  0  0  0  0  0  0  0  0  0  0  0
   -5.3789    2.1521   -0.1972 C   0  0  0  0  0  0  0  0  0  0  0  0
   -2.7550   -0.5343   -0.2950 C   0  0  0  0  0  0  0  0  0  0  0  0
   -3.6055   -1.6394   -0.4045 O   0  0  0  0  0  0  0  0  0  0  0  0
   -4.4535   -2.0519    0.6619 C   0  0  0  0  0  0  0  0  0  0  0  0
   -1.3511   -0.7173   -0.2744 C   0  0  0  0  0  0  0  0  0  0  0  0
   -0.7496   -2.0595   -0.4542 C   0  0  0  0  0  0  0  0  0  0  0  0
   -1.4647   -3.0958   -0.5178 O   0  0  0  0  0  0  0  0  0  0  0  0
    5.9121    1.2685    1.4768 H   0  0  0  0  0  0  0  0  0  0  0  0
    5.9356    1.7284   -0.2808 H   0  0  0  0  0  0  0  0  0  0  0  0
    5.9623    3.0041    0.9913 H   0  0  0  0  0  0  0  0  0  0  0  0
    4.8692   -0.3836   -0.1195 H   0  0  0  0  0  0  0  0  0  0  0  0
    4.5261   -2.7059   -0.7667 H   0  0  0  0  0  0  0  0  0  0  0  0
    2.9716   -4.5682   -1.2350 H   0  0  0  0  0  0  0  0  0  0  0  0
    2.0133    3.0898    1.3964 H   0  0  0  0  0  0  0  0  0  0  0  0
   -0.4561    2.5792   -0.2662 H   0  0  0  0  0  0  0  0  0  0  0  0
   -2.8332    2.8736   -0.2416 H   0  0  0  0  0  0  0  0  0  0  0  0
   -5.1081    2.8047   -1.0548 H   0  0  0  0  0  0  0  0  0  0  0  0
   -5.1234    2.6536    0.7597 H   0  0  0  0  0  0  0  0  0  0  0  0
   -6.4715    1.9663   -0.2214 H   0  0  0  0  0  0  0  0  0  0  0  0
   -3.8420   -2.2691    1.5658 H   0  0  0  0  0  0  0  0  0  0  0  0
   -4.9952   -2.9769    0.3620 H   0  0  0  0  0  0  0  0  0  0  0  0
   -5.2002   -1.2640    0.8949 H   0  0  0  0  0  0  0  0  0  0  0  0
  1  2  1  0
  2  3  1  0
  3  4  2  0
  4  5  1  0
  5  6  2  0
  6  7  1  0
  7  8  2  0
  8  9  1  0
  9 10  2  0
 10 11  1  0
 11 12  2  0
 12 13  1  0
 11 14  1  0
 14 15  2  0
 15 16  1  0
 16 17  2  0
 17 18  1  0
 18 19  1  0
 17 20  1  0
 20 21  1  0
 21 22  1  0
 20 23  2  0
 23 24  1  0
 24 25  2  0
 12  3  1  0
 23 14  1  0
 10  5  1  0
 24  9  1  0
  1 26  1  0
  1 27  1  0
  1 28  1  0
  4 29  1  0
  6 30  1  0
  7 31  1  0
 13 32  1  0
 15 33  1  0
 16 34  1  0
 19 35  1  0
 19 36  1  0
 19 37  1  0
 22 38  1  0
 22 39  1  0
 22 40  1  0
M  END

     RDKit          3D

 45 50  0  0  0  0  0  0  0  0999 V2000
    4.6905    0.2816   -1.0349 C   0  0  0  0  0  0  0  0  0  0  0  0
    3.8609    1.3094   -1.5286 C   0  0  0  0  0  0  0  0  0  0  0  0
    2.4985    1.3476   -1.1887 C   0  0  0  0  0  0  0  0  0  0  0  0
    1.9921    0.3330   -0.3750 C   0  0  0  0  0  0  0  0  0  0  0  0
    2.8121   -0.6547    0.1364 C   0  0  0  0  0  0  0  0  0  0  0  0
    4.1653   -0.7143   -0.1939 C   0  0  0  0  0  0  0  0  0  0  0  0
    2.0905   -1.6070    0.9144 N   0  0  0  0  0  0  0  0  0  0  0  0
    0.6863   -1.3428    0.6133 C   0  0  0  0  0  0  0  0  0  0  0  0
    0.2698   -2.1980   -0.6387 C   0  0  0  0  0  0  0  0  0  0  0  0
   -1.1970   -1.8973   -1.0465 C   0  0  0  0  0  0  0  0  0  0  0  0
   -1.6901   -0.6498   -0.2715 C   0  0  0  0  0  0  0  0  0  0  0  0
   -3.0883   -0.2238   -0.7480 C   0  0  0  0  0  0  0  0  0  0  0  0
   -3.4675    1.1361   -0.1648 C   0  0  0  0  0  0  0  0  0  0  0  0
   -2.4422    2.2021   -0.5637 C   0  0  0  0  0  0  0  0  0  0  0  0
   -1.0518    1.8400   -0.2271 N   0  0  0  0  0  0  0  0  0  0  0  0
   -0.6406    2.1109    1.1480 C   0  0  0  0  0  0  0  0  0  0  0  0
    0.5572    1.2067    1.4371 C   0  0  0  0  0  0  0  0  0  0  0  0
    0.6389    0.1926    0.2547 C   0  0  1  0  0  0  0  0  0  0  0  0
   -0.6224    0.4815   -0.5804 C   0  0  1  0  0  0  0  0  0  0  0  0
   -1.7089   -1.0821    1.2552 C   0  0  0  0  0  0  0  0  0  0  0  0
   -0.3381   -1.6758    1.7109 C   0  0  0  0  0  0  0  0  0  0  0  0
    5.7386    0.2603   -1.3037 H   0  0  0  0  0  0  0  0  0  0  0  0
    4.2780    2.0787   -2.1652 H   0  0  0  0  0  0  0  0  0  0  0  0
    1.8609    2.1485   -1.5396 H   0  0  0  0  0  0  0  0  0  0  0  0
    4.7946   -1.5098    0.1832 H   0  0  0  0  0  0  0  0  0  0  0  0
    2.4727   -2.5290    1.2222 H   0  0  0  0  0  0  0  0  0  0  0  0
    0.9391   -1.9742   -1.4985 H   0  0  0  0  0  0  0  0  0  0  0  0
    0.3826   -3.2823   -0.4177 H   0  0  0  0  0  0  0  0  0  0  0  0
   -1.2514   -1.7291   -2.1451 H   0  0  0  0  0  0  0  0  0  0  0  0
   -1.8422   -2.7739   -0.8146 H   0  0  0  0  0  0  0  0  0  0  0  0
   -3.1064   -0.1541   -1.8585 H   0  0  0  0  0  0  0  0  0  0  0  0
   -3.8463   -0.9798   -0.4480 H   0  0  0  0  0  0  0  0  0  0  0  0
   -4.4636    1.4311   -0.5599 H   0  0  0  0  0  0  0  0  0  0  0  0
   -3.5589    1.0828    0.9395 H   0  0  0  0  0  0  0  0  0  0  0  0
   -2.5053    2.3646   -1.6616 H   0  0  0  0  0  0  0  0  0  0  0  0
   -2.7113    3.1685   -0.0834 H   0  0  0  0  0  0  0  0  0  0  0  0
   -0.3480    3.1791    1.2399 H   0  0  0  0  0  0  0  0  0  0  0  0
   -1.4640    1.9204    1.8677 H   0  0  0  0  0  0  0  0  0  0  0  0
    0.4504    0.7463    2.4345 H   0  0  0  0  0  0  0  0  0  0  0  0
    1.4685    1.8440    1.5047 H   0  0  0  0  0  0  0  0  0  0  0  0
   -0.3707    0.4789   -1.6655 H   0  0  0  0  0  0  0  0  0  0  0  0
   -1.9700   -0.2349    1.9134 H   0  0  0  0  0  0  0  0  0  0  0  0
   -2.4983   -1.8487    1.4178 H   0  0  0  0  0  0  0  0  0  0  0  0
   -0.4263   -2.7796    1.8200 H   0  0  0  0  0  0  0  0  0  0  0  0
   -0.0381   -1.3034    2.7102 H   0  0  0  0  0  0  0  0  0  0  0  0
  1  2  1  0
  2  3  2  0
  3  4  1  0
  4  5  2  0
  5  6  1  0
  5  7  1  0
  7  8  1  0
  8  9  1  0
  9 10  1  0
 10 11  1  0
 11 12  1  0
 12 13  1  0
 13 14  1  0
 14 15  1  0
 15 16  1  0
 16 17  1  0
 18 17  1  1
 18 19  1  0
 11 20  1  0
 20 21  1  0
  6  1  2  0
 18  8  1  0
 18  4  1  0
 21  8  1  0
 19 11  1  0
 19 15  1  0
  1 22  1  0
  2 23  1  0
  3 24  1  0
  6 25  1  0
  7 26  1  0
  9 27  1  0
  9 28  1  0
 10 29  1  0
 10 30  1  0
 12 31  1  0
 12 32  1  0
 13 33  1  0
 13 34  1  0
 14 35  1  0
 14 36  1  0
 16 37  1  0
 16 38  1  0
 17 39  1  0
 17 40  1  0
 19 41  1  6
 20 42  1  0
 20 43  1  0
 21 44  1  0
 21 45  1  0
M  END

     RDKit          3D

 43 45  0  0  0  0  0  0  0  0999 V2000
   -2.6482    3.4120    0.3006 C   0  0  0  0  0  0  0  0  0  0  0  0
   -2.2943    2.2159    0.9862 O   0  0  0  0  0  0  0  0  0  0  0  0
   -1.2260    1.4115    0.5809 C   0  0  0  0  0  0  0  0  0  0  0  0
    0.0707    1.9238    0.6905 C   0  0  0  0  0  0  0  0  0  0  0  0
    0.2815    3.1297    1.3584 O   0  0  0  0  0  0  0  0  0  0  0  0
    1.1500    1.2413    0.1375 C   0  0  0  0  0  0  0  0  0  0  0  0
    0.9709    0.0324   -0.5556 C   0  0  0  0  0  0  0  0  0  0  0  0
    2.1558   -0.6676   -1.2254 C   0  0  0  0  0  0  0  0  0  0  0  0
    3.5689   -0.1941   -0.8303 C   0  0  0  0  0  0  0  0  0  0  0  0
    3.7986   -0.2798    0.6314 N   0  0  0  0  0  0  0  0  0  0  0  0
    4.0624   -1.6679    1.0509 C   0  0  0  0  0  0  0  0  0  0  0  0
    4.9418    0.5707    1.0052 C   0  0  0  0  0  0  0  0  0  0  0  0
   -0.3489   -0.4971   -0.6726 C   0  0  0  0  0  0  0  0  0  0  0  0
   -0.6052   -1.6187   -1.4881 C   0  0  0  0  0  0  0  0  0  0  0  0
   -1.8834   -2.1424   -1.6132 C   0  0  0  0  0  0  0  0  0  0  0  0
   -2.9369   -1.6258   -0.8633 C   0  0  0  0  0  0  0  0  0  0  0  0
   -4.2007   -2.2321   -0.9502 C   0  0  0  0  0  0  0  0  0  0  0  0
   -5.2476   -1.7996   -0.1398 C   0  0  0  0  0  0  0  0  0  0  0  0
   -5.0332   -0.7807    0.7829 C   0  0  0  0  0  0  0  0  0  0  0  0
   -3.7853   -0.1583    0.8706 C   0  0  0  0  0  0  0  0  0  0  0  0
   -2.7242   -0.5190    0.0019 C   0  0  0  0  0  0  0  0  0  0  0  0
   -1.4442    0.1295    0.0049 C   0  0  0  0  0  0  0  0  0  0  0  0
   -1.8370    4.1647    0.3745 H   0  0  0  0  0  0  0  0  0  0  0  0
   -2.8469    3.1895   -0.7695 H   0  0  0  0  0  0  0  0  0  0  0  0
   -3.5698    3.8310    0.7559 H   0  0  0  0  0  0  0  0  0  0  0  0
    1.2076    3.5281    1.4623 H   0  0  0  0  0  0  0  0  0  0  0  0
    2.1245    1.6960    0.2292 H   0  0  0  0  0  0  0  0  0  0  0  0
    2.1016   -1.7567   -1.0205 H   0  0  0  0  0  0  0  0  0  0  0  0
    2.0559   -0.5364   -2.3255 H   0  0  0  0  0  0  0  0  0  0  0  0
    3.6891    0.8510   -1.1968 H   0  0  0  0  0  0  0  0  0  0  0  0
    4.3231   -0.7982   -1.3848 H   0  0  0  0  0  0  0  0  0  0  0  0
    4.3056   -1.7047    2.1361 H   0  0  0  0  0  0  0  0  0  0  0  0
    4.9127   -2.1114    0.4829 H   0  0  0  0  0  0  0  0  0  0  0  0
    3.1557   -2.2945    0.9098 H   0  0  0  0  0  0  0  0  0  0  0  0
    5.8682    0.2611    0.4699 H   0  0  0  0  0  0  0  0  0  0  0  0
    5.1206    0.5183    2.1005 H   0  0  0  0  0  0  0  0  0  0  0  0
    4.7203    1.6337    0.7677 H   0  0  0  0  0  0  0  0  0  0  0  0
    0.1689   -2.0903   -2.0754 H   0  0  0  0  0  0  0  0  0  0  0  0
   -2.0398   -2.9893   -2.2726 H   0  0  0  0  0  0  0  0  0  0  0  0
   -4.3709   -3.0588   -1.6304 H   0  0  0  0  0  0  0  0  0  0  0  0
   -6.2151   -2.2823   -0.2009 H   0  0  0  0  0  0  0  0  0  0  0  0
   -5.8329   -0.4828    1.4500 H   0  0  0  0  0  0  0  0  0  0  0  0
   -3.6640    0.5481    1.6740 H   0  0  0  0  0  0  0  0  0  0  0  0
  1  2  1  0
  2  3  1  0
  3  4  2  0
  4  5  1  0
  4  6  1  0
  6  7  2  0
  7  8  1  0
  8  9  1  0
  9 10  1  0
 10 11  1  0
 10 12  1  0
  7 13  1  0
 13 14  2  0
 14 15  1  0
 15 16  2  0
 16 17  1  0
 17 18  2  0
 18 19  1  0
 19 20  2  0
 20 21  1  0
 21 22  2  0
 22  3  1  0
 22 13  1  0
 21 16  1  0
  1 23  1  0
  1 24  1  0
  1 25  1  0
  5 26  1  0
  6 27  1  0
  8 28  1  0
  8 29  1  0
  9 30  1  0
  9 31  1  0
 11 32  1  0
 11 33  1  0
 11 34  1  0
 12 35  1  0
 12 36  1  0
 12 37  1  0
 14 38  1  0
 15 39  1  0
 17 40  1  0
 18 41  1  0
 19 42  1  0
 20 43  1  0
M  END

     RDKit          3D

 45 46  0  0  0  0  0  0  0  0999 V2000
   -3.7284   -0.5196   -1.1026 C   0  0  0  0  0  0  0  0  0  0  0  0
   -4.5429   -0.5888    0.1628 C   0  0  0  0  0  0  0  0  0  0  0  0
   -5.9938   -0.9665    0.0266 C   0  0  0  0  0  0  0  0  0  0  0  0
   -4.0336   -0.3328    1.3947 C   0  0  0  0  0  0  0  0  0  0  0  0
   -2.5910   -0.0103    1.7241 C   0  0  1  0  0  0  0  0  0  0  0  0
   -1.7371   -0.9671    1.1521 O   0  0  0  0  0  0  0  0  0  0  0  0
   -2.1992    1.4117    1.2867 C   0  0  0  0  0  0  0  0  0  0  0  0
   -0.8422    1.7940    1.8390 C   0  0  0  0  0  0  0  0  0  0  0  0
   -0.7696    2.5413    3.1494 C   0  0  0  0  0  0  0  0  0  0  0  0
    0.2688    1.4185    1.1647 C   0  0  0  0  0  0  0  0  0  0  0  0
    1.6802    1.7492    1.5849 C   0  0  0  0  0  0  0  0  0  0  0  0
    2.5487    0.6495    1.3022 O   0  0  0  0  0  0  0  0  0  0  0  0
    2.9526    0.2282    0.0247 C   0  0  0  0  0  0  0  0  0  0  0  0
    2.6514    0.9483   -1.1493 C   0  0  0  0  0  0  0  0  0  0  0  0
    3.0684    0.4746   -2.3986 C   0  0  0  0  0  0  0  0  0  0  0  0
    3.7927   -0.7217   -2.4864 C   0  0  0  0  0  0  0  0  0  0  0  0
    4.2246   -1.2312   -3.7146 C   0  0  0  0  0  0  0  0  0  0  0  0
    4.9378   -2.4293   -3.7464 C   0  0  0  0  0  0  0  0  0  0  0  0
    5.2082   -3.0882   -2.5432 C   0  0  0  0  0  0  0  0  0  0  0  0
    5.8533   -4.1690   -2.5490 O   0  0  0  0  0  0  0  0  0  0  0  0
    4.7872   -2.5804   -1.3879 O   0  0  0  0  0  0  0  0  0  0  0  0
    4.1011   -1.4429   -1.3138 C   0  0  0  0  0  0  0  0  0  0  0  0
    3.6848   -0.9603   -0.0706 C   0  0  0  0  0  0  0  0  0  0  0  0
   -3.4595    0.5314   -1.3318 H   0  0  0  0  0  0  0  0  0  0  0  0
   -4.3206   -0.8942   -1.9669 H   0  0  0  0  0  0  0  0  0  0  0  0
   -2.8157   -1.1455   -1.0327 H   0  0  0  0  0  0  0  0  0  0  0  0
   -6.5154   -0.1985   -0.5806 H   0  0  0  0  0  0  0  0  0  0  0  0
   -6.0737   -1.9507   -0.4871 H   0  0  0  0  0  0  0  0  0  0  0  0
   -6.5071   -1.0477    1.0100 H   0  0  0  0  0  0  0  0  0  0  0  0
   -4.6966   -0.4156    2.2524 H   0  0  0  0  0  0  0  0  0  0  0  0
   -2.5157   -0.0460    2.8377 H   0  0  0  0  0  0  0  0  0  0  0  0
   -1.0558   -1.2075    1.8336 H   0  0  0  0  0  0  0  0  0  0  0  0
   -2.1797    1.5021    0.1825 H   0  0  0  0  0  0  0  0  0  0  0  0
   -2.9666    2.1301    1.6522 H   0  0  0  0  0  0  0  0  0  0  0  0
   -1.7841    2.7682    3.5387 H   0  0  0  0  0  0  0  0  0  0  0  0
   -0.2303    3.5015    3.0124 H   0  0  0  0  0  0  0  0  0  0  0  0
   -0.2462    1.9219    3.9101 H   0  0  0  0  0  0  0  0  0  0  0  0
    0.1487    0.8840    0.2238 H   0  0  0  0  0  0  0  0  0  0  0  0
    1.7403    1.9460    2.6737 H   0  0  0  0  0  0  0  0  0  0  0  0
    2.0290    2.6669    1.0657 H   0  0  0  0  0  0  0  0  0  0  0  0
    2.0946    1.8735   -1.1091 H   0  0  0  0  0  0  0  0  0  0  0  0
    2.8262    1.0401   -3.2917 H   0  0  0  0  0  0  0  0  0  0  0  0
    4.0110   -0.7127   -4.6398 H   0  0  0  0  0  0  0  0  0  0  0  0
    5.2777   -2.8372   -4.6905 H   0  0  0  0  0  0  0  0  0  0  0  0
    3.9175   -1.5172    0.8283 H   0  0  0  0  0  0  0  0  0  0  0  0
  1  2  1  0
  2  3  1  0
  2  4  2  3
  4  5  1  0
  5  6  1  0
  5  7  1  0
  7  8  1  0
  8  9  1  0
  8 10  2  0
 10 11  1  0
 11 12  1  0
 12 13  1  0
 13 14  2  0
 14 15  1  0
 15 16  2  0
 16 17  1  0
 17 18  2  0
 18 19  1  0
 19 20  2  0
 19 21  1  0
 21 22  1  0
 22 23  2  0
 23 13  1  0
 22 16  1  0
  1 24  1  0
  1 25  1  0
  1 26  1  0
  3 27  1  0
  3 28  1  0
  3 29  1  0
  4 30  1  0
  5 31  1  1
  6 32  1  0
  7 33  1  0
  7 34  1  0
  9 35  1  0
  9 36  1  0
  9 37  1  0
 10 38  1  0
 11 39  1  0
 11 40  1  0
 14 41  1  0
 15 42  1  0
 17 43  1  0
 18 44  1  0
 23 45  1  0
M  END

     RDKit          3D

 33 35  0  0  0  0  0  0  0  0999 V2000
    0.8148    3.8732    0.9409 C   0  0  0  0  0  0  0  0  0  0  0  0
    0.0451    2.6863    0.7788 O   0  0  0  0  0  0  0  0  0  0  0  0
    0.5755    1.4386    0.4156 C   0  0  0  0  0  0  0  0  0  0  0  0
    1.9493    1.2482    0.1721 C   0  0  0  0  0  0  0  0  0  0  0  0
    2.4337   -0.0179   -0.1845 C   0  0  0  0  0  0  0  0  0  0  0  0
    3.7940   -0.2334   -0.4296 C   0  0  0  0  0  0  0  0  0  0  0  0
    4.2349   -1.5095   -0.7753 C   0  0  0  0  0  0  0  0  0  0  0  0
    3.3013   -2.5459   -0.8678 C   0  0  0  0  0  0  0  0  0  0  0  0
    3.6788   -3.7060   -1.1777 O   0  0  0  0  0  0  0  0  0  0  0  0
    2.0132   -2.3145   -0.6300 O   0  0  0  0  0  0  0  0  0  0  0  0
    1.5465   -1.1112   -0.2979 C   0  0  0  0  0  0  0  0  0  0  0  0
    0.1760   -0.9194   -0.0583 C   0  0  0  0  0  0  0  0  0  0  0  0
   -0.3017    0.3526    0.2905 C   0  0  0  0  0  0  0  0  0  0  0  0
   -1.6683    0.5291    0.5362 O   0  0  0  0  0  0  0  0  0  0  0  0
   -2.6676   -0.4220    0.1414 C   0  0  0  0  0  0  0  0  0  0  0  0
   -3.2283   -0.0047   -1.2241 C   0  0  0  0  0  0  0  0  0  0  0  0
   -3.7845   -0.4087    1.1909 C   0  0  0  0  0  0  0  0  0  0  0  0
   -2.0945   -1.8228    0.0321 C   0  0  0  0  0  0  0  0  0  0  0  0
   -0.7846   -2.0369   -0.1182 C   0  0  0  0  0  0  0  0  0  0  0  0
    0.1409    4.7053    1.2301 H   0  0  0  0  0  0  0  0  0  0  0  0
    1.5698    3.7321    1.7429 H   0  0  0  0  0  0  0  0  0  0  0  0
    1.3155    4.1370   -0.0146 H   0  0  0  0  0  0  0  0  0  0  0  0
    2.6420    2.0753    0.2594 H   0  0  0  0  0  0  0  0  0  0  0  0
    4.5090    0.5771   -0.3534 H   0  0  0  0  0  0  0  0  0  0  0  0
    5.2853   -1.6901   -0.9674 H   0  0  0  0  0  0  0  0  0  0  0  0
   -2.4199   -0.0042   -1.9868 H   0  0  0  0  0  0  0  0  0  0  0  0
   -4.0271   -0.7041   -1.5537 H   0  0  0  0  0  0  0  0  0  0  0  0
   -3.6530    1.0207   -1.1691 H   0  0  0  0  0  0  0  0  0  0  0  0
   -4.2098    0.6133    1.2881 H   0  0  0  0  0  0  0  0  0  0  0  0
   -3.3812   -0.7126    2.1809 H   0  0  0  0  0  0  0  0  0  0  0  0
   -4.6017   -1.1080    0.9096 H   0  0  0  0  0  0  0  0  0  0  0  0
   -2.7713   -2.6669   -0.0322 H   0  0  0  0  0  0  0  0  0  0  0  0
   -0.4322   -3.0498   -0.2689 H   0  0  0  0  0  0  0  0  0  0  0  0
  1  2  1  0
  2  3  1  0
  3  4  2  0
  4  5  1  0
  5  6  1  0
  6  7  2  0
  7  8  1  0
  8  9  2  0
  8 10  1  0
 10 11  1  0
 11 12  1  0
 12 13  2  0
 13 14  1  0
 14 15  1  0
 15 16  1  0
 15 17  1  0
 15 18  1  0
 18 19  2  0
 13  3  1  0
 11  5  2  0
 19 12  1  0
  1 20  1  0
  1 21  1  0
  1 22  1  0
  4 23  1  0
  6 24  1  0
  7 25  1  0
 16 26  1  0
 16 27  1  0
 16 28  1  0
 17 29  1  0
 17 30  1  0
 17 31  1  0
 18 32  1  0
 19 33  1  0
M  END

     RDKit          3D

 38 40  0  0  0  0  0  0  0  0999 V2000
    5.4210   -1.1098   -1.5786 C   0  0  0  0  0  0  0  0  0  0  0  0
    5.1431    0.0640   -0.8219 O   0  0  0  0  0  0  0  0  0  0  0  0
    3.8739    0.4145   -0.3367 C   0  0  0  0  0  0  0  0  0  0  0  0
    3.7481    1.5965    0.3909 C   0  0  0  0  0  0  0  0  0  0  0  0
    2.5091    2.0080    0.9018 C   0  0  0  0  0  0  0  0  0  0  0  0
    2.4723    3.1406    1.7138 O   0  0  0  0  0  0  0  0  0  0  0  0
    1.3393    1.2488    0.6313 C   0  0  0  0  0  0  0  0  0  0  0  0
    0.0358    1.6470    1.0487 C   0  0  0  0  0  0  0  0  0  0  0  0
   -0.2293    2.9281    1.5423 O   0  0  0  0  0  0  0  0  0  0  0  0
   -1.0494    0.7515    0.9152 C   0  0  0  0  0  0  0  0  0  0  0  0
   -0.8730   -0.4779    0.2556 C   0  0  0  0  0  0  0  0  0  0  0  0
    0.3854   -0.8325   -0.2332 C   0  0  0  0  0  0  0  0  0  0  0  0
    1.4870    0.0120   -0.0540 C   0  0  0  0  0  0  0  0  0  0  0  0
    2.7411   -0.3854   -0.5435 C   0  0  0  0  0  0  0  0  0  0  0  0
   -2.0255   -1.4495    0.1322 C   0  0  0  0  0  0  0  0  0  0  0  0
   -3.3800   -0.7096   -0.0190 C   0  0  1  0  0  0  0  0  0  0  0  0
   -3.4664   -0.0354   -1.4031 C   0  0  0  0  0  0  0  0  0  0  0  0
   -4.5547   -1.6983    0.1284 C   0  0  0  0  0  0  0  0  0  0  0  0
   -4.6118   -2.2169    1.4323 O   0  0  0  0  0  0  0  0  0  0  0  0
   -3.4978    0.2939    0.9946 O   0  0  0  0  0  0  0  0  0  0  0  0
   -2.4148    1.0832    1.3938 C   0  0  0  0  0  0  0  0  0  0  0  0
   -2.6165    2.0416    2.1855 O   0  0  0  0  0  0  0  0  0  0  0  0
    5.1849   -2.0149   -0.9800 H   0  0  0  0  0  0  0  0  0  0  0  0
    6.4994   -1.1270   -1.8375 H   0  0  0  0  0  0  0  0  0  0  0  0
    4.8300   -1.1067   -2.5187 H   0  0  0  0  0  0  0  0  0  0  0  0
    4.6321    2.1923    0.5823 H   0  0  0  0  0  0  0  0  0  0  0  0
    3.3056    3.6779    1.9237 H   0  0  0  0  0  0  0  0  0  0  0  0
    0.3036    3.7468    1.2860 H   0  0  0  0  0  0  0  0  0  0  0  0
    0.5100   -1.7851   -0.7363 H   0  0  0  0  0  0  0  0  0  0  0  0
    2.8303   -1.3214   -1.0801 H   0  0  0  0  0  0  0  0  0  0  0  0
   -1.8735   -2.1325   -0.7331 H   0  0  0  0  0  0  0  0  0  0  0  0
   -2.0292   -2.0705    1.0530 H   0  0  0  0  0  0  0  0  0  0  0  0
   -4.4263    0.5151   -1.5042 H   0  0  0  0  0  0  0  0  0  0  0  0
   -2.6411    0.6944   -1.5423 H   0  0  0  0  0  0  0  0  0  0  0  0
   -3.4052   -0.7933   -2.2136 H   0  0  0  0  0  0  0  0  0  0  0  0
   -4.4740   -2.5157   -0.6273 H   0  0  0  0  0  0  0  0  0  0  0  0
   -5.5111   -1.1666   -0.0665 H   0  0  0  0  0  0  0  0  0  0  0  0
   -4.1723   -3.1069    1.4122 H   0  0  0  0  0  0  0  0  0  0  0  0
  1  2  1  0
  2  3  1  0
  3  4  2  0
  4  5  1  0
  5  6  1  0
  5  7  2  0
  7  8  1  0
  8  9  1  0
  8 10  2  0
 10 11  1  0
 11 12  2  0
 12 13  1  0
 13 14  2  0
 11 15  1  0
 15 16  1  0
 16 17  1  6
 16 18  1  0
 18 19  1  0
 16 20  1  0
 20 21  1  0
 21 22  2  0
 14  3  1  0
 13  7  1  0
 21 10  1  0
  1 23  1  0
  1 24  1  0
  1 25  1  0
  4 26  1  0
  6 27  1  0
  9 28  1  0
 12 29  1  0
 14 30  1  0
 15 31  1  0
 15 32  1  0
 17 33  1  0
 17 34  1  0
 17 35  1  0
 18 36  1  0
 18 37  1  0
 19 38  1  0
M  END

     RDKit          3D

 39 41  0  0  0  0  0  0  0  0999 V2000
    4.4005    2.3691   -0.7997 C   0  0  0  0  0  0  0  0  0  0  0  0
    4.0139    1.0160   -0.5743 O   0  0  0  0  0  0  0  0  0  0  0  0
    2.6872    0.5710   -0.4266 C   0  0  0  0  0  0  0  0  0  0  0  0
    1.6134    1.4708   -0.4630 C   0  0  0  0  0  0  0  0  0  0  0  0
    0.2959    1.0340   -0.3201 C   0  0  0  0  0  0  0  0  0  0  0  0
   -0.7375    1.9739   -0.3784 O   0  0  0  0  0  0  0  0  0  0  0  0
   -0.8680    3.2633    0.7365 S   0  0  0  0  0  6  0  0  0  0  0  0
   -1.0239    2.7040    2.1227 O   0  0  0  0  0  0  0  0  0  0  0  0
   -2.0785    4.0858    0.3989 O   0  0  0  0  0  0  0  0  0  0  0  0
    0.4994    4.2435    0.6901 O   0  0  0  0  0  0  0  0  0  0  0  0
    0.0166   -0.3446   -0.1580 C   0  0  0  0  0  0  0  0  0  0  0  0
    1.0953   -1.2690   -0.1268 C   0  0  0  0  0  0  0  0  0  0  0  0
    0.8105   -2.6406    0.0109 C   0  0  0  0  0  0  0  0  0  0  0  0
   -0.4940   -3.1172    0.1215 C   0  0  0  0  0  0  0  0  0  0  0  0
   -0.6525   -4.5063    0.1370 O   0  0  0  0  0  0  0  0  0  0  0  0
   -1.5757   -2.2025    0.1861 C   0  0  0  0  0  0  0  0  0  0  0  0
   -2.9153   -2.5830    0.4526 C   0  0  0  0  0  0  0  0  0  0  0  0
   -3.2286   -3.7696    0.7380 O   0  0  0  0  0  0  0  0  0  0  0  0
   -3.9222   -1.6196    0.4451 C   0  0  0  0  0  0  0  0  0  0  0  0
   -3.5890   -0.2875    0.2115 C   0  0  0  0  0  0  0  0  0  0  0  0
   -4.6453    0.7724    0.2182 C   0  0  0  0  0  0  0  0  0  0  0  0
   -2.3225    0.0550    0.0223 O   0  0  0  0  0  0  0  0  0  0  0  0
   -1.3121   -0.8149    0.0118 C   0  0  0  0  0  0  0  0  0  0  0  0
    2.4367   -0.8065   -0.2486 C   0  0  0  0  0  0  0  0  0  0  0  0
    3.6014   -1.7764   -0.2077 C   0  0  0  0  0  0  0  0  0  0  0  0
    4.0548    3.0137    0.0372 H   0  0  0  0  0  0  0  0  0  0  0  0
    5.5082    2.4284   -0.8557 H   0  0  0  0  0  0  0  0  0  0  0  0
    3.9754    2.7318   -1.7617 H   0  0  0  0  0  0  0  0  0  0  0  0
    1.7920    2.5215   -0.6379 H   0  0  0  0  0  0  0  0  0  0  0  0
    0.4440    4.7153   -0.1807 H   0  0  0  0  0  0  0  0  0  0  0  0
    1.5992   -3.3797   -0.0000 H   0  0  0  0  0  0  0  0  0  0  0  0
   -1.5033   -4.9840   -0.1194 H   0  0  0  0  0  0  0  0  0  0  0  0
   -4.9513   -1.9010    0.6380 H   0  0  0  0  0  0  0  0  0  0  0  0
   -5.5138    0.4519   -0.3952 H   0  0  0  0  0  0  0  0  0  0  0  0
   -4.2405    1.7201   -0.1994 H   0  0  0  0  0  0  0  0  0  0  0  0
   -4.9785    0.9638    1.2588 H   0  0  0  0  0  0  0  0  0  0  0  0
    4.5891   -1.2763   -0.2833 H   0  0  0  0  0  0  0  0  0  0  0  0
    3.5945   -2.3339    0.7532 H   0  0  0  0  0  0  0  0  0  0  0  0
    3.5244   -2.4928   -1.0541 H   0  0  0  0  0  0  0  0  0  0  0  0
  1  2  1  0
  2  3  1  0
  3  4  2  0
  4  5  1  0
  5  6  1  0
  6  7  1  0
  7  8  2  0
  7  9  2  0
  7 10  1  0
  5 11  2  0
 11 12  1  0
 12 13  1  0
 13 14  2  0
 14 15  1  0
 14 16  1  0
 16 17  1  0
 17 18  2  0
 17 19  1  0
 19 20  2  0
 20 21  1  0
 20 22  1  0
 22 23  1  0
 12 24  2  0
 24 25  1  0
 24  3  1  0
 23 11  1  0
 23 16  2  0
  1 26  1  0
  1 27  1  0
  1 28  1  0
  4 29  1  0
 10 30  1  0
 13 31  1  0
 15 32  1  0
 19 33  1  0
 21 34  1  0
 21 35  1  0
 21 36  1  0
 25 37  1  0
 25 38  1  0
 25 39  1  0
M  END

     RDKit          3D

 38 39  0  0  0  0  0  0  0  0999 V2000
   -5.3054    2.9185   -0.3047 C   0  0  0  0  0  0  0  0  0  0  0  0
   -5.7567    1.5691   -0.2654 O   0  0  0  0  0  0  0  0  0  0  0  0
   -4.9133    0.4481   -0.2172 C   0  0  0  0  0  0  0  0  0  0  0  0
   -3.5085    0.5634   -0.2266 C   0  0  0  0  0  0  0  0  0  0  0  0
   -2.6948   -0.5859   -0.1786 C   0  0  0  0  0  0  0  0  0  0  0  0
   -1.2141   -0.5099   -0.1894 C   0  0  0  0  0  0  0  0  0  0  0  0
   -0.5350    0.4816   -0.7835 C   0  0  0  0  0  0  0  0  0  0  0  0
    0.9408    0.5512   -0.8320 C   0  0  0  0  0  0  0  0  0  0  0  0
    1.4739    1.6435   -1.1662 O   0  0  0  0  0  0  0  0  0  0  0  0
    1.7721   -0.5882   -0.5496 N   0  0  0  0  0  0  0  0  0  0  0  0
    3.2308   -0.4964   -0.5104 C   0  0  0  0  0  0  0  0  0  0  0  0
    3.6920    0.2066    0.7696 C   0  0  0  0  0  0  0  0  0  0  0  0
    5.1859    0.2988    0.8060 C   0  0  0  0  0  0  0  0  0  0  0  0
    6.0424   -0.6385    1.3392 C   0  0  0  0  0  0  0  0  0  0  0  0
    7.2978   -0.2241    1.1118 N   0  0  0  0  0  0  0  0  0  0  0  0
    7.1788    0.9390    0.4427 C   0  0  0  0  0  0  0  0  0  0  0  0
    5.8932    1.2911    0.2286 N   0  0  0  0  0  0  0  0  0  0  0  0
   -3.3026   -1.8467   -0.0893 C   0  0  0  0  0  0  0  0  0  0  0  0
   -4.6929   -1.9655   -0.0863 C   0  0  0  0  0  0  0  0  0  0  0  0
   -5.4990   -0.8236   -0.1550 C   0  0  0  0  0  0  0  0  0  0  0  0
   -6.8875   -0.9445   -0.1582 O   0  0  0  0  0  0  0  0  0  0  0  0
   -6.1846    3.5932   -0.3388 H   0  0  0  0  0  0  0  0  0  0  0  0
   -4.7172    3.1511    0.6076 H   0  0  0  0  0  0  0  0  0  0  0  0
   -4.6906    3.0905   -1.2128 H   0  0  0  0  0  0  0  0  0  0  0  0
   -3.0531    1.5425   -0.2463 H   0  0  0  0  0  0  0  0  0  0  0  0
   -0.6810   -1.3242    0.2793 H   0  0  0  0  0  0  0  0  0  0  0  0
   -1.0720    1.2884   -1.2625 H   0  0  0  0  0  0  0  0  0  0  0  0
    1.3521   -1.5415   -0.4876 H   0  0  0  0  0  0  0  0  0  0  0  0
    3.6590   -1.5232   -0.5373 H   0  0  0  0  0  0  0  0  0  0  0  0
    3.5965    0.0489   -1.4086 H   0  0  0  0  0  0  0  0  0  0  0  0
    3.2676    1.2328    0.8173 H   0  0  0  0  0  0  0  0  0  0  0  0
    3.3311   -0.3582    1.6576 H   0  0  0  0  0  0  0  0  0  0  0  0
    5.7739   -1.5568    1.8453 H   0  0  0  0  0  0  0  0  0  0  0  0
    8.1813   -0.7078    1.3864 H   0  0  0  0  0  0  0  0  0  0  0  0
    8.0228    1.5252    0.1034 H   0  0  0  0  0  0  0  0  0  0  0  0
   -2.6982   -2.7442   -0.0413 H   0  0  0  0  0  0  0  0  0  0  0  0
   -5.1447   -2.9481   -0.0326 H   0  0  0  0  0  0  0  0  0  0  0  0
   -7.3407   -1.8497   -0.1145 H   0  0  0  0  0  0  0  0  0  0  0  0
  1  2  1  0
  2  3  1  0
  3  4  2  0
  4  5  1  0
  5  6  1  0
  6  7  2  0
  7  8  1  0
  8  9  2  0
  8 10  1  0
 10 11  1  0
 11 12  1  0
 12 13  1  0
 13 14  2  0
 14 15  1  0
 15 16  1  0
 16 17  2  0
  5 18  2  0
 18 19  1  0
 19 20  2  0
 20 21  1  0
 20  3  1  0
 17 13  1  0
  1 22  1  0
  1 23  1  0
  1 24  1  0
  4 25  1  0
  6 26  1  0
  7 27  1  0
 10 28  1  0
 11 29  1  0
 11 30  1  0
 12 31  1  0
 12 32  1  0
 14 33  1  0
 15 34  1  0
 16 35  1  0
 18 36  1  0
 19 37  1  0
 21 38  1  0
M  END

     RDKit          3D

 48 50  0  0  0  0  0  0  0  0999 V2000
    2.6470    3.1209    0.7328 C   0  0  0  0  0  0  0  0  0  0  0  0
    3.0841    1.8795    0.9447 C   0  0  0  0  0  0  0  0  0  0  0  0
    2.4778    0.7146    0.2631 C   0  0  0  0  0  0  0  0  0  0  0  0
    3.2538   -0.0351   -0.6432 C   0  0  0  0  0  0  0  0  0  0  0  0
    4.7222    0.2418   -0.8654 C   0  0  0  0  0  0  0  0  0  0  0  0
    2.6496   -1.0886   -1.3509 C   0  0  0  0  0  0  0  0  0  0  0  0
    3.3312   -1.7636   -2.3640 O   0  0  0  0  0  0  0  0  0  0  0  0
    1.3643   -1.4886   -1.0341 C   0  0  0  0  0  0  0  0  0  0  0  0
    0.5809   -0.7839   -0.1050 C   0  0  0  0  0  0  0  0  0  0  0  0
    1.1611    0.2872    0.6047 C   0  0  0  0  0  0  0  0  0  0  0  0
    0.5064    0.7688    1.8654 C   0  0  0  0  0  0  0  0  0  0  0  0
   -1.0204    0.8496    1.7933 C   0  0  0  0  0  0  0  0  0  0  0  0
   -1.7515   -0.1539    0.8244 C   0  0  1  0  0  0  0  0  0  0  0  0
   -2.6026    0.5676   -0.3072 C   0  0  0  0  0  0  0  0  0  0  0  0
   -1.7361    1.5258   -1.1751 C   0  0  0  0  0  0  0  0  0  0  0  0
   -3.7749    1.3350    0.3447 C   0  0  0  0  0  0  0  0  0  0  0  0
   -3.2727   -0.4691   -1.2018 C   0  0  0  0  0  0  0  0  0  0  0  0
   -4.0795   -0.1158   -2.0554 O   0  0  0  0  0  0  0  0  0  0  0  0
   -2.9793   -1.9112   -1.0217 C   0  0  0  0  0  0  0  0  0  0  0  0
   -1.4768   -2.0549   -0.9401 C   0  0  0  0  0  0  0  0  0  0  0  0
   -0.8105   -1.3219    0.2758 C   0  0  1  0  0  0  0  0  0  0  0  0
   -0.6005   -2.3527    1.3977 C   0  0  0  0  0  0  0  0  0  0  0  0
    1.8157    3.2996    0.0541 H   0  0  0  0  0  0  0  0  0  0  0  0
    3.1248    3.9578    1.2314 H   0  0  0  0  0  0  0  0  0  0  0  0
    3.8941    1.7154    1.6319 H   0  0  0  0  0  0  0  0  0  0  0  0
    5.1887    0.7920   -0.0197 H   0  0  0  0  0  0  0  0  0  0  0  0
    5.2843   -0.7201   -0.9153 H   0  0  0  0  0  0  0  0  0  0  0  0
    4.8503    0.7951   -1.8185 H   0  0  0  0  0  0  0  0  0  0  0  0
    4.2347   -1.4529   -2.7275 H   0  0  0  0  0  0  0  0  0  0  0  0
    0.9998   -2.3894   -1.5074 H   0  0  0  0  0  0  0  0  0  0  0  0
    0.8116    0.0688    2.6537 H   0  0  0  0  0  0  0  0  0  0  0  0
    0.8734    1.7727    2.1838 H   0  0  0  0  0  0  0  0  0  0  0  0
   -1.2747    1.8902    1.5123 H   0  0  0  0  0  0  0  0  0  0  0  0
   -1.4193    0.6866    2.8248 H   0  0  0  0  0  0  0  0  0  0  0  0
   -2.5164   -0.6644    1.4413 H   0  0  0  0  0  0  0  0  0  0  0  0
   -2.1320    2.5603   -1.1448 H   0  0  0  0  0  0  0  0  0  0  0  0
   -0.6918    1.5949   -0.8131 H   0  0  0  0  0  0  0  0  0  0  0  0
   -1.6527    1.1887   -2.2295 H   0  0  0  0  0  0  0  0  0  0  0  0
   -3.4477    2.0557    1.1108 H   0  0  0  0  0  0  0  0  0  0  0  0
   -4.4978    0.6265    0.7858 H   0  0  0  0  0  0  0  0  0  0  0  0
   -4.3604    1.8891   -0.4186 H   0  0  0  0  0  0  0  0  0  0  0  0
   -3.3633   -2.4932   -1.8791 H   0  0  0  0  0  0  0  0  0  0  0  0
   -3.4660   -2.3159   -0.1172 H   0  0  0  0  0  0  0  0  0  0  0  0
   -1.2038   -3.1213   -0.9345 H   0  0  0  0  0  0  0  0  0  0  0  0
   -1.0832   -1.6375   -1.9044 H   0  0  0  0  0  0  0  0  0  0  0  0
    0.0065   -1.9400    2.2095 H   0  0  0  0  0  0  0  0  0  0  0  0
   -1.5859   -2.6529    1.8069 H   0  0  0  0  0  0  0  0  0  0  0  0
   -0.0625   -3.2570    1.0004 H   0  0  0  0  0  0  0  0  0  0  0  0
  1  2  2  3
  2  3  1  0
  3  4  2  0
  4  5  1  0
  4  6  1  0
  6  7  1  0
  6  8  2  0
  8  9  1  0
  9 10  2  0
 10 11  1  0
 11 12  1  0
 12 13  1  0
 13 14  1  0
 14 15  1  0
 14 16  1  0
 14 17  1  0
 17 18  2  0
 17 19  1  0
 19 20  1  0
 20 21  1  0
 21 22  1  1
 10  3  1  0
 21 13  1  0
 21  9  1  0
  1 23  1  0
  1 24  1  0
  2 25  1  0
  5 26  1  0
  5 27  1  0
  5 28  1  0
  7 29  1  0
  8 30  1  0
 11 31  1  0
 11 32  1  0
 12 33  1  0
 12 34  1  0
 13 35  1  1
 15 36  1  0
 15 37  1  0
 15 38  1  0
 16 39  1  0
 16 40  1  0
 16 41  1  0
 19 42  1  0
 19 43  1  0
 20 44  1  0
 20 45  1  0
 22 46  1  0
 22 47  1  0
 22 48  1  0
M  END

     RDKit          3D

 45 48  0  0  0  0  0  0  0  0999 V2000
    5.9932    0.8830    1.5929 C   0  0  0  0  0  0  0  0  0  0  0  0
    5.7365   -0.3377    0.9017 O   0  0  0  0  0  0  0  0  0  0  0  0
    4.4643   -0.7670    0.4902 C   0  0  0  0  0  0  0  0  0  0  0  0
    3.3010    0.0009    0.7045 C   0  0  0  0  0  0  0  0  0  0  0  0
    2.0536   -0.4500    0.2358 C   0  0  0  0  0  0  0  0  0  0  0  0
    0.8217    0.4178    0.3683 C   0  0  2  0  0  0  0  0  0  0  0  0
   -0.2772   -0.4082    0.7756 O   0  0  0  0  0  0  0  0  0  0  0  0
   -1.6031   -0.1108    0.4676 C   0  0  0  0  0  0  0  0  0  0  0  0
   -2.6439   -0.8652    1.0287 C   0  0  0  0  0  0  0  0  0  0  0  0
   -2.3196   -1.8712    1.9549 O   0  0  0  0  0  0  0  0  0  0  0  0
   -3.2713   -2.7367    2.5812 C   0  0  0  0  0  0  0  0  0  0  0  0
   -3.9849   -0.5625    0.6803 C   0  0  0  0  0  0  0  0  0  0  0  0
   -4.2570    0.4783   -0.2129 C   0  0  0  0  0  0  0  0  0  0  0  0
   -5.5707    0.7918   -0.5966 C   0  0  0  0  0  0  0  0  0  0  0  0
   -5.7942    1.8399   -1.4855 C   0  0  0  0  0  0  0  0  0  0  0  0
   -4.6966    2.5631   -1.9608 C   0  0  0  0  0  0  0  0  0  0  0  0
   -4.8727    3.5032   -2.7743 O   0  0  0  0  0  0  0  0  0  0  0  0
   -3.4571    2.2431   -1.5847 O   0  0  0  0  0  0  0  0  0  0  0  0
   -3.1982    1.2422   -0.7488 C   0  0  0  0  0  0  0  0  0  0  0  0
   -1.8789    0.9387   -0.4136 C   0  0  0  0  0  0  0  0  0  0  0  0
   -0.8153    1.6528   -0.9789 O   0  0  0  0  0  0  0  0  0  0  0  0
    0.5157    1.1418   -0.9763 C   0  0  1  0  0  0  0  0  0  0  0  0
    1.4911    2.2981   -1.2553 C   0  0  0  0  0  0  0  0  0  0  0  0
    1.9719   -1.6971   -0.4100 C   0  0  0  0  0  0  0  0  0  0  0  0
    3.1175   -2.4675   -0.6087 C   0  0  0  0  0  0  0  0  0  0  0  0
    4.3618   -2.0029   -0.1662 C   0  0  0  0  0  0  0  0  0  0  0  0
    5.5065   -2.7732   -0.3675 O   0  0  0  0  0  0  0  0  0  0  0  0
    5.6590    1.7555    0.9940 H   0  0  0  0  0  0  0  0  0  0  0  0
    7.0808    0.9778    1.7704 H   0  0  0  0  0  0  0  0  0  0  0  0
    5.4790    0.8785    2.5732 H   0  0  0  0  0  0  0  0  0  0  0  0
    3.3610    0.9519    1.2135 H   0  0  0  0  0  0  0  0  0  0  0  0
    0.9793    1.1898    1.1566 H   0  0  0  0  0  0  0  0  0  0  0  0
   -2.7446   -3.3698    3.3293 H   0  0  0  0  0  0  0  0  0  0  0  0
   -4.0649   -2.1440    3.1123 H   0  0  0  0  0  0  0  0  0  0  0  0
   -3.7400   -3.4025    1.8111 H   0  0  0  0  0  0  0  0  0  0  0  0
   -4.8115   -1.1330    1.0837 H   0  0  0  0  0  0  0  0  0  0  0  0
   -6.4138    0.2265   -0.2224 H   0  0  0  0  0  0  0  0  0  0  0  0
   -6.8071    2.1055   -1.7912 H   0  0  0  0  0  0  0  0  0  0  0  0
    0.5963    0.4094   -1.8089 H   0  0  0  0  0  0  0  0  0  0  0  0
    1.3715    3.0952   -0.5003 H   0  0  0  0  0  0  0  0  0  0  0  0
    2.5412    1.9496   -1.2468 H   0  0  0  0  0  0  0  0  0  0  0  0
    1.2881    2.7253   -2.2503 H   0  0  0  0  0  0  0  0  0  0  0  0
    1.0210   -2.0700   -0.7656 H   0  0  0  0  0  0  0  0  0  0  0  0
    3.0401   -3.4206   -1.1176 H   0  0  0  0  0  0  0  0  0  0  0  0
    5.4707   -3.6700   -0.8467 H   0  0  0  0  0  0  0  0  0  0  0  0
  1  2  1  0
  2  3  1  0
  3  4  2  0
  4  5  1  0
  5  6  1  0
  6  7  1  0
  7  8  1  0
  8  9  2  0
  9 10  1  0
 10 11  1  0
  9 12  1  0
 12 13  2  0
 13 14  1  0
 14 15  2  0
 15 16  1  0
 16 17  2  0
 16 18  1  0
 18 19  1  0
 19 20  2  0
 20 21  1  0
 21 22  1  0
 22 23  1  0
  5 24  2  0
 24 25  1  0
 25 26  2  0
 26 27  1  0
 26  3  1  0
 22  6  1  0
 20  8  1  0
 19 13  1  0
  1 28  1  0
  1 29  1  0
  1 30  1  0
  4 31  1  0
  6 32  1  1
 11 33  1  0
 11 34  1  0
 11 35  1  0
 12 36  1  0
 14 37  1  0
 15 38  1  0
 22 39  1  6
 23 40  1  0
 23 41  1  0
 23 42  1  0
 24 43  1  0
 25 44  1  0
 27 45  1  0
M  END

     RDKit          3D

 54 55  0  0  0  0  0  0  0  0999 V2000
    4.8579    1.1414   -0.8459 C   0  0  0  0  0  0  0  0  0  0  0  0
    3.4795    1.3244   -0.2913 C   0  0  0  0  0  0  0  0  0  0  0  0
    3.0992    2.5889    0.0003 C   0  0  0  0  0  0  0  0  0  0  0  0
    1.7988    2.9577    0.6735 C   0  0  0  0  0  0  0  0  0  0  0  0
    1.0219    1.7652    1.2359 C   0  0  0  0  0  0  0  0  0  0  0  0
    1.1074    0.5586    0.2849 C   0  0  2  0  0  0  0  0  0  0  0  0
    0.0367   -0.5879    0.5703 C   0  0  1  0  0  0  0  0  0  0  0  0
   -0.1259   -0.7952    2.1053 C   0  0  0  0  0  0  0  0  0  0  0  0
   -1.3314   -0.1086   -0.0840 C   0  0  0  0  0  0  0  0  0  0  0  0
   -2.6487   -0.6706    0.5230 C   0  0  0  0  0  0  0  0  0  0  0  0
   -3.9405   -0.0454   -0.0009 C   0  0  0  0  0  0  0  0  0  0  0  0
   -5.1605   -0.2459    0.8661 C   0  0  0  0  0  0  0  0  0  0  0  0
   -4.0239    0.5577   -1.2119 C   0  0  0  0  0  0  0  0  0  0  0  0
   -5.2557    1.0885   -1.8482 C   0  0  0  0  0  0  0  0  0  0  0  0
   -6.3937    0.9417   -1.3324 O   0  0  0  0  0  0  0  0  0  0  0  0
   -5.1576    1.7224   -3.0786 O   0  0  0  0  0  0  0  0  0  0  0  0
    0.5561   -1.9476   -0.0733 C   0  0  1  0  0  0  0  0  0  0  0  0
   -0.5209   -3.0135   -0.3448 C   0  0  0  0  0  0  0  0  0  0  0  0
    1.3471   -1.6882   -1.3705 C   0  0  0  0  0  0  0  0  0  0  0  0
    2.6724   -0.9506   -1.1040 C   0  0  0  0  0  0  0  0  0  0  0  0
    2.6073    0.0940    0.0659 C   0  0  1  0  0  0  0  0  0  0  0  0
    3.2578   -0.5067    1.3464 C   0  0  0  0  0  0  0  0  0  0  0  0
    5.1308    0.0741   -0.9824 H   0  0  0  0  0  0  0  0  0  0  0  0
    5.6073    1.5882   -0.1603 H   0  0  0  0  0  0  0  0  0  0  0  0
    4.9232    1.6410   -1.8368 H   0  0  0  0  0  0  0  0  0  0  0  0
    3.7498    3.4139   -0.2524 H   0  0  0  0  0  0  0  0  0  0  0  0
    2.0504    3.6253    1.5313 H   0  0  0  0  0  0  0  0  0  0  0  0
    1.1557    3.5388   -0.0309 H   0  0  0  0  0  0  0  0  0  0  0  0
    1.4420    1.5096    2.2395 H   0  0  0  0  0  0  0  0  0  0  0  0
   -0.0311    2.0818    1.4035 H   0  0  0  0  0  0  0  0  0  0  0  0
    0.8357    0.9779   -0.7093 H   0  0  0  0  0  0  0  0  0  0  0  0
   -0.7696   -1.6813    2.3368 H   0  0  0  0  0  0  0  0  0  0  0  0
    0.8488   -0.9637    2.6063 H   0  0  0  0  0  0  0  0  0  0  0  0
   -0.5975    0.0992    2.5807 H   0  0  0  0  0  0  0  0  0  0  0  0
   -1.4207    0.9997   -0.0261 H   0  0  0  0  0  0  0  0  0  0  0  0
   -1.2961   -0.3458   -1.1687 H   0  0  0  0  0  0  0  0  0  0  0  0
   -2.6476   -0.5190    1.6305 H   0  0  0  0  0  0  0  0  0  0  0  0
   -2.7290   -1.7576    0.3378 H   0  0  0  0  0  0  0  0  0  0  0  0
   -5.9232   -0.8541    0.3388 H   0  0  0  0  0  0  0  0  0  0  0  0
   -5.5952    0.7294    1.1594 H   0  0  0  0  0  0  0  0  0  0  0  0
   -4.9113   -0.7858    1.8034 H   0  0  0  0  0  0  0  0  0  0  0  0
   -3.1257    0.6657   -1.8007 H   0  0  0  0  0  0  0  0  0  0  0  0
   -5.9708    2.0259   -3.5803 H   0  0  0  0  0  0  0  0  0  0  0  0
    1.2450   -2.4501    0.6382 H   0  0  0  0  0  0  0  0  0  0  0  0
   -1.0946   -3.2497    0.5765 H   0  0  0  0  0  0  0  0  0  0  0  0
   -1.2020   -2.6921   -1.1709 H   0  0  0  0  0  0  0  0  0  0  0  0
   -0.0288   -3.9515   -0.6756 H   0  0  0  0  0  0  0  0  0  0  0  0
    1.5787   -2.6564   -1.8730 H   0  0  0  0  0  0  0  0  0  0  0  0
    0.7125   -1.0896   -2.0701 H   0  0  0  0  0  0  0  0  0  0  0  0
    3.4680   -1.7114   -0.9027 H   0  0  0  0  0  0  0  0  0  0  0  0
    2.9466   -0.4439   -2.0693 H   0  0  0  0  0  0  0  0  0  0  0  0
    2.7873   -1.4425    1.6877 H   0  0  0  0  0  0  0  0  0  0  0  0
    3.2633    0.2224    2.1836 H   0  0  0  0  0  0  0  0  0  0  0  0
    4.3146   -0.7789    1.1297 H   0  0  0  0  0  0  0  0  0  0  0  0
  1  2  1  0
  2  3  2  0
  3  4  1  0
  4  5  1  0
  5  6  1  0
  6  7  1  0
  7  8  1  1
  7  9  1  0
  9 10  1  0
 10 11  1  0
 11 12  1  0
 11 13  2  0
 13 14  1  0
 14 15  2  0
 14 16  1  0
  7 17  1  0
 17 18  1  0
 17 19  1  0
 19 20  1  0
 20 21  1  0
 21 22  1  1
 21  2  1  0
 21  6  1  0
  1 23  1  0
  1 24  1  0
  1 25  1  0
  3 26  1  0
  4 27  1  0
  4 28  1  0
  5 29  1  0
  5 30  1  0
  6 31  1  6
  8 32  1  0
  8 33  1  0
  8 34  1  0
  9 35  1  0
  9 36  1  0
 10 37  1  0
 10 38  1  0
 12 39  1  0
 12 40  1  0
 12 41  1  0
 13 42  1  0
 16 43  1  0
 17 44  1  1
 18 45  1  0
 18 46  1  0
 18 47  1  0
 19 48  1  0
 19 49  1  0
 20 50  1  0
 20 51  1  0
 22 52  1  0
 22 53  1  0
 22 54  1  0
M  END

     RDKit          3D

 33 35  0  0  0  0  0  0  0  0999 V2000
    6.1127   -0.4100    0.7240 C   0  0  0  0  0  0  0  0  0  0  0  0
    5.2573   -0.9293   -0.2862 O   0  0  0  0  0  0  0  0  0  0  0  0
    3.9168   -0.5469   -0.3704 C   0  0  0  0  0  0  0  0  0  0  0  0
    3.5475    0.5282   -1.1872 C   0  0  0  0  0  0  0  0  0  0  0  0
    4.7871    1.4011   -2.0848 Cl  0  0  0  0  0  0  0  0  0  0  0  0
    2.2077    0.9404   -1.2687 C   0  0  0  0  0  0  0  0  0  0  0  0
    1.9409    2.0963   -2.0101 O   0  0  0  0  0  0  0  0  0  0  0  0
    1.1994    0.2024   -0.5819 C   0  0  0  0  0  0  0  0  0  0  0  0
   -0.1918    0.4434   -0.7111 C   0  0  0  0  0  0  0  0  0  0  0  0
   -0.6342    1.2737   -1.5488 O   0  0  0  0  0  0  0  0  0  0  0  0
   -1.1060   -0.2993    0.0602 C   0  0  0  0  0  0  0  0  0  0  0  0
   -2.5695   -0.0526   -0.0045 C   0  0  0  0  0  0  0  0  0  0  0  0
   -3.4641   -1.1250   -0.1618 C   0  0  0  0  0  0  0  0  0  0  0  0
   -4.8415   -0.8951   -0.2155 C   0  0  0  0  0  0  0  0  0  0  0  0
   -5.3448    0.4080   -0.1080 C   0  0  0  0  0  0  0  0  0  0  0  0
   -6.7185    0.6385   -0.1620 O   0  0  0  0  0  0  0  0  0  0  0  0
   -4.4597    1.4826    0.0559 C   0  0  0  0  0  0  0  0  0  0  0  0
   -5.0672    3.1245    0.2014 Cl  0  0  0  0  0  0  0  0  0  0  0  0
   -3.0801    1.2523    0.1094 C   0  0  0  0  0  0  0  0  0  0  0  0
   -0.6077   -1.3088    0.8898 C   0  0  0  0  0  0  0  0  0  0  0  0
    0.6910   -1.5618    0.9451 O   0  0  0  0  0  0  0  0  0  0  0  0
    1.5948   -0.8749    0.2543 C   0  0  0  0  0  0  0  0  0  0  0  0
    2.9431   -1.2396    0.3564 C   0  0  0  0  0  0  0  0  0  0  0  0
    3.4083   -2.6016    1.3723 Cl  0  0  0  0  0  0  0  0  0  0  0  0
    7.1258   -0.8450    0.6030 H   0  0  0  0  0  0  0  0  0  0  0  0
    5.7237   -0.6757    1.7295 H   0  0  0  0  0  0  0  0  0  0  0  0
    6.1814    0.6948    0.6338 H   0  0  0  0  0  0  0  0  0  0  0  0
    1.1284    2.6811   -1.8819 H   0  0  0  0  0  0  0  0  0  0  0  0
   -3.0956   -2.1390   -0.2566 H   0  0  0  0  0  0  0  0  0  0  0  0
   -5.5174   -1.7312   -0.3423 H   0  0  0  0  0  0  0  0  0  0  0  0
   -7.3793   -0.1206   -0.2797 H   0  0  0  0  0  0  0  0  0  0  0  0
   -2.4085    2.0896    0.2550 H   0  0  0  0  0  0  0  0  0  0  0  0
   -1.2802   -1.9004    1.4980 H   0  0  0  0  0  0  0  0  0  0  0  0
  1  2  1  0
  2  3  1  0
  3  4  2  0
  4  5  1  0
  4  6  1  0
  6  7  1  0
  6  8  2  0
  8  9  1  0
  9 10  2  0
  9 11  1  0
 11 12  1  0
 12 13  2  0
 13 14  1  0
 14 15  2  0
 15 16  1  0
 15 17  1  0
 17 18  1  0
 17 19  2  0
 11 20  2  0
 20 21  1  0
 21 22  1  0
 22 23  2  0
 23 24  1  0
 23  3  1  0
 22  8  1  0
 19 12  1  0
  1 25  1  0
  1 26  1  0
  1 27  1  0
  7 28  1  0
 13 29  1  0
 14 30  1  0
 16 31  1  0
 19 32  1  0
 20 33  1  0
M  END

     RDKit          3D

 33 35  0  0  0  0  0  0  0  0999 V2000
   -5.9865    1.4475   -0.2906 C   0  0  0  0  0  0  0  0  0  0  0  0
   -5.3069    0.2644   -0.6906 O   0  0  0  0  0  0  0  0  0  0  0  0
   -3.9625    0.0578   -0.3747 C   0  0  0  0  0  0  0  0  0  0  0  0
   -3.6076   -0.5192    0.8510 C   0  0  0  0  0  0  0  0  0  0  0  0
   -4.8697   -1.0295    1.9697 Cl  0  0  0  0  0  0  0  0  0  0  0  0
   -2.2595   -0.7446    1.1735 C   0  0  0  0  0  0  0  0  0  0  0  0
   -1.9945   -1.4268    2.3657 O   0  0  0  0  0  0  0  0  0  0  0  0
   -1.2379   -0.3126    0.2776 C   0  0  0  0  0  0  0  0  0  0  0  0
    0.1485   -0.3561    0.5698 C   0  0  0  0  0  0  0  0  0  0  0  0
    0.5630   -0.6759    1.7157 O   0  0  0  0  0  0  0  0  0  0  0  0
    1.0833    0.0253   -0.4114 C   0  0  0  0  0  0  0  0  0  0  0  0
    2.5474   -0.0460   -0.1700 C   0  0  0  0  0  0  0  0  0  0  0  0
    3.1292   -1.2142    0.3489 C   0  0  0  0  0  0  0  0  0  0  0  0
    4.5091   -1.2866    0.5706 C   0  0  0  0  0  0  0  0  0  0  0  0
    5.1772   -2.7775    1.2215 Cl  0  0  0  0  0  0  0  0  0  0  0  0
    5.3284   -0.1812    0.2685 C   0  0  0  0  0  0  0  0  0  0  0  0
    6.7084   -0.2186    0.4786 O   0  0  0  0  0  0  0  0  0  0  0  0
    4.7502    0.9841   -0.2559 C   0  0  0  0  0  0  0  0  0  0  0  0
    5.7478    2.3780   -0.6424 Cl  0  0  0  0  0  0  0  0  0  0  0  0
    3.3707    1.0494   -0.4755 C   0  0  0  0  0  0  0  0  0  0  0  0
    0.6033    0.5030   -1.6351 C   0  0  0  0  0  0  0  0  0  0  0  0
   -0.6979    0.5991   -1.8622 O   0  0  0  0  0  0  0  0  0  0  0  0
   -1.6185    0.2332   -0.9765 C   0  0  0  0  0  0  0  0  0  0  0  0
   -2.9709    0.4055   -1.2966 C   0  0  0  0  0  0  0  0  0  0  0  0
   -3.4255    1.0886   -2.8552 Cl  0  0  0  0  0  0  0  0  0  0  0  0
   -7.0364    1.4026   -0.6451 H   0  0  0  0  0  0  0  0  0  0  0  0
   -5.4932    2.3374   -0.7354 H   0  0  0  0  0  0  0  0  0  0  0  0
   -5.9829    1.5362    0.8160 H   0  0  0  0  0  0  0  0  0  0  0  0
   -1.1439   -1.9369    2.5536 H   0  0  0  0  0  0  0  0  0  0  0  0
    2.5118   -2.0770    0.5683 H   0  0  0  0  0  0  0  0  0  0  0  0
    7.1844   -1.0287    0.8544 H   0  0  0  0  0  0  0  0  0  0  0  0
    2.9395    1.9607   -0.8721 H   0  0  0  0  0  0  0  0  0  0  0  0
    1.2921    0.8042   -2.4141 H   0  0  0  0  0  0  0  0  0  0  0  0
  1  2  1  0
  2  3  1  0
  3  4  2  0
  4  5  1  0
  4  6  1  0
  6  7  1  0
  6  8  2  0
  8  9  1  0
  9 10  2  0
  9 11  1  0
 11 12  1  0
 12 13  2  0
 13 14  1  0
 14 15  1  0
 14 16  2  0
 16 17  1  0
 16 18  1  0
 18 19  1  0
 18 20  2  0
 11 21  2  0
 21 22  1  0
 22 23  1  0
 23 24  2  0
 24 25  1  0
 24  3  1  0
 23  8  1  0
 20 12  1  0
  1 26  1  0
  1 27  1  0
  1 28  1  0
  7 29  1  0
 13 30  1  0
 17 31  1  0
 20 32  1  0
 21 33  1  0
M  END

     RDKit          3D

 46 47  0  0  0  0  0  0  0  0999 V2000
    2.6411   -0.1371    3.1698 O   0  0  0  0  0  0  0  0  0  0  0  0
    2.9867   -0.5180    2.0189 C   0  0  0  0  0  0  0  0  0  0  0  0
    4.1134    0.1530    1.3526 C   0  0  0  0  0  0  0  0  0  0  0  0
    4.5169   -0.1914    0.1229 C   0  0  0  0  0  0  0  0  0  0  0  0
    5.6629    0.4375   -0.5798 C   0  0  0  0  0  0  0  0  0  0  0  0
    6.1881    1.6948   -0.2129 C   0  0  0  0  0  0  0  0  0  0  0  0
    7.2676    2.2425   -0.9138 C   0  0  0  0  0  0  0  0  0  0  0  0
    7.8280    1.5533   -1.9903 C   0  0  0  0  0  0  0  0  0  0  0  0
    7.3087    0.3145   -2.3702 C   0  0  0  0  0  0  0  0  0  0  0  0
    6.2312   -0.2390   -1.6728 C   0  0  0  0  0  0  0  0  0  0  0  0
    2.3216   -1.5793    1.3911 O   0  0  0  0  0  0  0  0  0  0  0  0
    1.2051   -2.2620    1.9608 C   0  0  0  0  0  0  0  0  0  0  0  0
   -0.1149   -1.5457    1.6435 C   0  0  0  0  0  0  0  0  0  0  0  0
   -0.1149   -0.2705    2.2294 O   0  0  0  0  0  0  0  0  0  0  0  0
   -0.3323   -1.4289    0.1252 C   0  0  0  0  0  0  0  0  0  0  0  0
   -1.6564   -0.9779   -0.1582 O   0  0  0  0  0  0  0  0  0  0  0  0
   -2.7824   -1.8081   -0.0822 C   0  0  0  0  0  0  0  0  0  0  0  0
   -2.6509   -3.0425    0.1415 O   0  0  0  0  0  0  0  0  0  0  0  0
   -4.1341   -1.2569   -0.2649 C   0  0  0  0  0  0  0  0  0  0  0  0
   -4.3475    0.0487   -0.4700 C   0  0  0  0  0  0  0  0  0  0  0  0
   -5.6945    0.6426   -0.6558 C   0  0  0  0  0  0  0  0  0  0  0  0
   -6.8713    0.0095   -0.2053 C   0  0  0  0  0  0  0  0  0  0  0  0
   -8.1158    0.6204   -0.3868 C   0  0  0  0  0  0  0  0  0  0  0  0
   -8.2019    1.8669   -1.0095 C   0  0  0  0  0  0  0  0  0  0  0  0
   -7.0429    2.5087   -1.4493 C   0  0  0  0  0  0  0  0  0  0  0  0
   -5.7961    1.9027   -1.2709 C   0  0  0  0  0  0  0  0  0  0  0  0
    4.6285    0.9224    1.9091 H   0  0  0  0  0  0  0  0  0  0  0  0
    4.0076   -1.0001   -0.3887 H   0  0  0  0  0  0  0  0  0  0  0  0
    5.7696    2.2695    0.5997 H   0  0  0  0  0  0  0  0  0  0  0  0
    7.6694    3.2046   -0.6223 H   0  0  0  0  0  0  0  0  0  0  0  0
    8.6648    1.9791   -2.5296 H   0  0  0  0  0  0  0  0  0  0  0  0
    7.7450   -0.2194   -3.2038 H   0  0  0  0  0  0  0  0  0  0  0  0
    5.8491   -1.2043   -1.9812 H   0  0  0  0  0  0  0  0  0  0  0  0
    1.3328   -2.3683    3.0599 H   0  0  0  0  0  0  0  0  0  0  0  0
    1.1670   -3.2892    1.5376 H   0  0  0  0  0  0  0  0  0  0  0  0
   -0.9335   -2.1580    2.0873 H   0  0  0  0  0  0  0  0  0  0  0  0
   -1.0559    0.0475    2.2391 H   0  0  0  0  0  0  0  0  0  0  0  0
   -0.1527   -2.4047   -0.3752 H   0  0  0  0  0  0  0  0  0  0  0  0
    0.3886   -0.6950   -0.2959 H   0  0  0  0  0  0  0  0  0  0  0  0
   -4.9596   -1.9550   -0.2433 H   0  0  0  0  0  0  0  0  0  0  0  0
   -3.4950    0.7142   -0.5403 H   0  0  0  0  0  0  0  0  0  0  0  0
   -6.8390   -0.9397    0.3112 H   0  0  0  0  0  0  0  0  0  0  0  0
   -9.0148    0.1291   -0.0377 H   0  0  0  0  0  0  0  0  0  0  0  0
   -9.1670    2.3377   -1.1450 H   0  0  0  0  0  0  0  0  0  0  0  0
   -7.1112    3.4752   -1.9322 H   0  0  0  0  0  0  0  0  0  0  0  0
   -4.9092    2.4169   -1.6181 H   0  0  0  0  0  0  0  0  0  0  0  0
  1  2  2  0
  2  3  1  0
  3  4  2  0
  4  5  1  0
  5  6  2  0
  6  7  1  0
  7  8  2  0
  8  9  1  0
  9 10  2  0
  2 11  1  0
 11 12  1  0
 12 13  1  0
 13 14  1  0
 13 15  1  0
 15 16  1  0
 16 17  1  0
 17 18  2  0
 17 19  1  0
 19 20  2  0
 20 21  1  0
 21 22  2  0
 22 23  1  0
 23 24  2  0
 24 25  1  0
 25 26  2  0
 10  5  1  0
 26 21  1  0
  3 27  1  0
  4 28  1  0
  6 29  1  0
  7 30  1  0
  8 31  1  0
  9 32  1  0
 10 33  1  0
 12 34  1  0
 12 35  1  0
 13 36  1  0
 14 37  1  0
 15 38  1  0
 15 39  1  0
 19 40  1  0
 20 41  1  0
 22 42  1  0
 23 43  1  0
 24 44  1  0
 25 45  1  0
 26 46  1  0
M  END

     RDKit          3D

 26 27  0  0  0  0  0  0  0  0999 V2000
   -3.2152   -0.6167   -0.0270 C   0  0  0  0  0  0  0  0  0  0  0  0
   -1.7114   -0.5976   -0.3348 C   0  0  2  0  0  0  0  0  0  0  0  0
   -0.9977   -1.7078    0.4455 C   0  0  0  0  0  0  0  0  0  0  0  0
    0.4548   -1.7006    0.0918 C   0  0  0  0  0  0  0  0  0  0  0  0
    1.0110   -2.7837   -0.2311 O   0  0  0  0  0  0  0  0  0  0  0  0
    1.1842   -0.4082    0.0420 C   0  0  0  0  0  0  0  0  0  0  0  0
    2.6035   -0.3285    0.0797 C   0  0  0  0  0  0  0  0  0  0  0  0
    3.4229   -1.4328    0.3260 O   0  0  0  0  0  0  0  0  0  0  0  0
    3.2338    0.9066   -0.0954 C   0  0  0  0  0  0  0  0  0  0  0  0
    2.4868    2.0721   -0.2330 C   0  0  0  0  0  0  0  0  0  0  0  0
    1.0961    2.0183   -0.2039 C   0  0  0  0  0  0  0  0  0  0  0  0
    0.4260    0.7866   -0.0930 C   0  0  0  0  0  0  0  0  0  0  0  0
   -1.0965    0.7826   -0.0054 C   0  0  1  0  0  0  0  0  0  0  0  0
   -1.6281    1.7311   -0.9000 O   0  0  0  0  0  0  0  0  0  0  0  0
   -3.3980   -0.4261    1.0524 H   0  0  0  0  0  0  0  0  0  0  0  0
   -3.6479   -1.6045   -0.2940 H   0  0  0  0  0  0  0  0  0  0  0  0
   -3.7416    0.1591   -0.6224 H   0  0  0  0  0  0  0  0  0  0  0  0
   -1.5846   -0.7956   -1.4240 H   0  0  0  0  0  0  0  0  0  0  0  0
   -1.4436   -2.6949    0.1911 H   0  0  0  0  0  0  0  0  0  0  0  0
   -1.1057   -1.5449    1.5401 H   0  0  0  0  0  0  0  0  0  0  0  0
    3.0897   -2.3077    0.7048 H   0  0  0  0  0  0  0  0  0  0  0  0
    4.3150    0.9671   -0.0847 H   0  0  0  0  0  0  0  0  0  0  0  0
    2.9885    3.0257   -0.3368 H   0  0  0  0  0  0  0  0  0  0  0  0
    0.5413    2.9454   -0.2718 H   0  0  0  0  0  0  0  0  0  0  0  0
   -1.3623    1.0403    1.0489 H   0  0  0  0  0  0  0  0  0  0  0  0
   -1.9208    2.5147   -0.3651 H   0  0  0  0  0  0  0  0  0  0  0  0
  1  2  1  0
  2  3  1  0
  3  4  1  0
  4  5  2  0
  4  6  1  0
  6  7  2  0
  7  8  1  0
  7  9  1  0
  9 10  2  0
 10 11  1  0
 11 12  2  0
 12 13  1  0
 13 14  1  0
 13  2  1  0
 12  6  1  0
  1 15  1  0
  1 16  1  0
  1 17  1  0
  2 18  1  6
  3 19  1  0
  3 20  1  0
  8 21  1  0
  9 22  1  0
 10 23  1  0
 11 24  1  0
 13 25  1  1
 14 26  1  0
M  END

     RDKit          3D

 42 46  0  0  0  0  0  0  0  0999 V2000
   -1.0044    0.0214   -1.8239 O   0  0  0  0  0  0  0  0  0  0  0  0
   -0.2475   -0.8991   -1.4174 C   0  0  0  0  0  0  0  0  0  0  0  0
    0.7744   -1.4271   -2.1766 O   0  0  0  0  0  0  0  0  0  0  0  0
    1.4850   -2.4296   -1.4604 C   0  0  0  0  0  0  0  0  0  0  0  0
    0.9428   -2.3857   -0.0030 C   0  0  1  0  0  0  0  0  0  0  0  0
    1.9871   -1.8842    1.0241 C   0  0  0  0  0  0  0  0  0  0  0  0
    2.5358   -0.5059    0.7286 C   0  0  0  0  0  0  0  0  0  0  0  0
    1.8101    0.6559    1.1025 C   0  0  0  0  0  0  0  0  0  0  0  0
    2.3200    1.9376    0.8243 C   0  0  0  0  0  0  0  0  0  0  0  0
    3.5528    2.0229    0.1858 C   0  0  0  0  0  0  0  0  0  0  0  0
    4.2575    0.9191   -0.1649 C   0  0  0  0  0  0  0  0  0  0  0  0
    3.7891   -0.3657    0.0897 C   0  0  0  0  0  0  0  0  0  0  0  0
    5.4409    1.3003   -0.7685 O   0  0  0  0  0  0  0  0  0  0  0  0
    5.4802    2.7351   -0.7996 C   0  0  0  0  0  0  0  0  0  0  0  0
    4.2552    3.1542   -0.1828 O   0  0  0  0  0  0  0  0  0  0  0  0
   -0.2602   -1.4926   -0.0943 C   0  0  0  0  0  0  0  0  0  0  0  0
   -1.1448   -1.3020    0.8977 C   0  0  0  0  0  0  0  0  0  0  0  0
   -2.3682   -0.4921    0.7706 C   0  0  0  0  0  0  0  0  0  0  0  0
   -2.6235    0.5322    1.7148 C   0  0  0  0  0  0  0  0  0  0  0  0
   -3.8094    1.2871    1.6462 C   0  0  0  0  0  0  0  0  0  0  0  0
   -4.7246    0.9691    0.6458 C   0  0  0  0  0  0  0  0  0  0  0  0
   -4.4973   -0.0285   -0.2459 C   0  0  0  0  0  0  0  0  0  0  0  0
   -3.3317   -0.7881   -0.2212 C   0  0  0  0  0  0  0  0  0  0  0  0
   -5.5755   -0.1361   -1.1036 O   0  0  0  0  0  0  0  0  0  0  0  0
   -6.5400    0.8562   -0.7289 C   0  0  0  0  0  0  0  0  0  0  0  0
   -5.9553    1.5428    0.3880 O   0  0  0  0  0  0  0  0  0  0  0  0
    1.2585   -3.4188   -1.9109 H   0  0  0  0  0  0  0  0  0  0  0  0
    2.5795   -2.2550   -1.5341 H   0  0  0  0  0  0  0  0  0  0  0  0
    0.6138   -3.4059    0.2971 H   0  0  0  0  0  0  0  0  0  0  0  0
    1.5376   -1.8869    2.0405 H   0  0  0  0  0  0  0  0  0  0  0  0
    2.8205   -2.6194    1.0641 H   0  0  0  0  0  0  0  0  0  0  0  0
    0.8598    0.5691    1.6132 H   0  0  0  0  0  0  0  0  0  0  0  0
    1.7741    2.8301    1.1018 H   0  0  0  0  0  0  0  0  0  0  0  0
    4.3804   -1.2279   -0.1897 H   0  0  0  0  0  0  0  0  0  0  0  0
    6.3496    3.1095   -0.2171 H   0  0  0  0  0  0  0  0  0  0  0  0
    5.5220    3.0947   -1.8494 H   0  0  0  0  0  0  0  0  0  0  0  0
   -0.9483   -1.7542    1.8617 H   0  0  0  0  0  0  0  0  0  0  0  0
   -1.9026    0.7466    2.4950 H   0  0  0  0  0  0  0  0  0  0  0  0
   -4.0085    2.0802    2.3555 H   0  0  0  0  0  0  0  0  0  0  0  0
   -3.1843   -1.5905   -0.9332 H   0  0  0  0  0  0  0  0  0  0  0  0
   -7.4921    0.3714   -0.4271 H   0  0  0  0  0  0  0  0  0  0  0  0
   -6.7084    1.5602   -1.5693 H   0  0  0  0  0  0  0  0  0  0  0  0
  1  2  2  0
  2  3  1  0
  3  4  1  0
  4  5  1  0
  5  6  1  0
  6  7  1  0
  7  8  2  0
  8  9  1  0
  9 10  2  0
 10 11  1  0
 11 12  2  0
 11 13  1  0
 13 14  1  0
 14 15  1  0
  5 16  1  0
 16 17  2  0
 17 18  1  0
 18 19  2  0
 19 20  1  0
 20 21  2  0
 21 22  1  0
 22 23  2  0
 22 24  1  0
 24 25  1  0
 25 26  1  0
 16  2  1  0
 23 18  1  0
 12  7  1  0
 26 21  1  0
 15 10  1  0
  4 27  1  0
  4 28  1  0
  5 29  1  1
  6 30  1  0
  6 31  1  0
  8 32  1  0
  9 33  1  0
 12 34  1  0
 14 35  1  0
 14 36  1  0
 17 37  1  0
 19 38  1  0
 20 39  1  0
 23 40  1  0
 25 41  1  0
 25 42  1  0
M  END

     RDKit          3D

 56 57  0  0  0  0  0  0  0  0999 V2000
   -0.3067   -1.8021   -2.8889 C   0  0  0  0  0  0  0  0  0  0  0  0
    0.5081   -0.7983   -2.0390 C   0  0  2  0  0  0  0  0  0  0  0  0
    1.9880   -1.1818   -2.1742 C   0  0  0  0  0  0  0  0  0  0  0  0
    2.9152   -0.2077   -1.4473 C   0  0  0  0  0  0  0  0  0  0  0  0
    2.5872   -0.0649    0.0658 C   0  0  1  0  0  0  0  0  0  0  0  0
    2.9888   -1.3730    0.8125 C   0  0  0  0  0  0  0  0  0  0  0  0
    3.4269    1.0802    0.6824 C   0  0  0  0  0  0  0  0  0  0  0  0
    4.6515    1.6600   -0.0122 C   0  0  0  0  0  0  0  0  0  0  0  0
    5.5383    2.2361    0.9056 O   0  0  0  0  0  0  0  0  0  0  0  0
    3.0113    1.6451    1.8318 C   0  0  0  0  0  0  0  0  0  0  0  0
    1.8629    1.0861    2.5959 C   0  0  0  0  0  0  0  0  0  0  0  0
    0.6820    0.7387    1.6750 C   0  0  0  0  0  0  0  0  0  0  0  0
    1.0586    0.3191    0.2134 C   0  0  2  0  0  0  0  0  0  0  0  0
    0.0182   -0.6302   -0.5367 C   0  0  2  0  0  0  0  0  0  0  0  0
   -0.0969   -2.0329    0.1302 C   0  0  0  0  0  0  0  0  0  0  0  0
   -1.4170    0.0407   -0.6125 C   0  0  0  0  0  0  0  0  0  0  0  0
   -2.2586    0.1705    0.6847 C   0  0  0  0  0  0  0  0  0  0  0  0
   -3.7599    0.3148    0.4557 C   0  0  0  0  0  0  0  0  0  0  0  0
   -4.2441    0.9323   -0.6531 C   0  0  0  0  0  0  0  0  0  0  0  0
   -5.6729    1.0909   -1.0073 C   0  0  0  0  0  0  0  0  0  0  0  0
   -5.9876    1.9061   -1.9139 O   0  0  0  0  0  0  0  0  0  0  0  0
   -6.6688    0.3253   -0.4044 O   0  0  0  0  0  0  0  0  0  0  0  0
   -4.6662   -0.1056    1.5939 C   0  0  0  0  0  0  0  0  0  0  0  0
   -5.4243    0.9897    2.0311 O   0  0  0  0  0  0  0  0  0  0  0  0
   -1.3536   -1.4907   -3.0498 H   0  0  0  0  0  0  0  0  0  0  0  0
   -0.2891   -2.8130   -2.4476 H   0  0  0  0  0  0  0  0  0  0  0  0
    0.1257   -1.8896   -3.9048 H   0  0  0  0  0  0  0  0  0  0  0  0
    0.3978    0.1841   -2.5391 H   0  0  0  0  0  0  0  0  0  0  0  0
    2.1599   -2.2240   -1.8466 H   0  0  0  0  0  0  0  0  0  0  0  0
    2.2745   -1.1632   -3.2492 H   0  0  0  0  0  0  0  0  0  0  0  0
    2.8272    0.7830   -1.9480 H   0  0  0  0  0  0  0  0  0  0  0  0
    3.9463   -0.5841   -1.6041 H   0  0  0  0  0  0  0  0  0  0  0  0
    2.9156   -2.2792    0.1908 H   0  0  0  0  0  0  0  0  0  0  0  0
    2.3690   -1.5389    1.7165 H   0  0  0  0  0  0  0  0  0  0  0  0
    4.0481   -1.3387    1.1377 H   0  0  0  0  0  0  0  0  0  0  0  0
    4.3024    2.4432   -0.7188 H   0  0  0  0  0  0  0  0  0  0  0  0
    5.1958    0.8638   -0.5673 H   0  0  0  0  0  0  0  0  0  0  0  0
    6.2810    2.6250    0.3643 H   0  0  0  0  0  0  0  0  0  0  0  0
    3.5235    2.5132    2.2450 H   0  0  0  0  0  0  0  0  0  0  0  0
    2.2036    0.1836    3.1541 H   0  0  0  0  0  0  0  0  0  0  0  0
    1.5465    1.8305    3.3570 H   0  0  0  0  0  0  0  0  0  0  0  0
    0.0802   -0.0338    2.1802 H   0  0  0  0  0  0  0  0  0  0  0  0
    0.0689    1.6636    1.6196 H   0  0  0  0  0  0  0  0  0  0  0  0
    0.9861    1.2770   -0.3493 H   0  0  0  0  0  0  0  0  0  0  0  0
   -1.0298   -2.5433   -0.1821 H   0  0  0  0  0  0  0  0  0  0  0  0
    0.7342   -2.7030   -0.1577 H   0  0  0  0  0  0  0  0  0  0  0  0
   -0.1059   -1.9779    1.2323 H   0  0  0  0  0  0  0  0  0  0  0  0
   -1.3198    1.0520   -1.0555 H   0  0  0  0  0  0  0  0  0  0  0  0
   -2.0481   -0.5606   -1.2903 H   0  0  0  0  0  0  0  0  0  0  0  0
   -1.9527    1.0623    1.2504 H   0  0  0  0  0  0  0  0  0  0  0  0
   -2.0899   -0.7212    1.3261 H   0  0  0  0  0  0  0  0  0  0  0  0
   -3.5535    1.3508   -1.3722 H   0  0  0  0  0  0  0  0  0  0  0  0
   -7.6466    0.4256   -0.6706 H   0  0  0  0  0  0  0  0  0  0  0  0
   -4.0643   -0.4917    2.4523 H   0  0  0  0  0  0  0  0  0  0  0  0
   -5.3283   -0.9278    1.2515 H   0  0  0  0  0  0  0  0  0  0  0  0
   -5.9388    0.6840    2.8183 H   0  0  0  0  0  0  0  0  0  0  0  0
  1  2  1  0
  2  3  1  0
  3  4  1  0
  4  5  1  0
  5  6  1  1
  5  7  1  0
  7  8  1  0
  8  9  1  0
  7 10  2  0
 10 11  1  0
 11 12  1  0
 12 13  1  0
 13 14  1  0
 14 15  1  1
 14 16  1  0
 16 17  1  0
 17 18  1  0
 18 19  2  0
 19 20  1  0
 20 21  2  0
 20 22  1  0
 18 23  1  0
 23 24  1  0
 14  2  1  0
 13  5  1  0
  1 25  1  0
  1 26  1  0
  1 27  1  0
  2 28  1  6
  3 29  1  0
  3 30  1  0
  4 31  1  0
  4 32  1  0
  6 33  1  0
  6 34  1  0
  6 35  1  0
  8 36  1  0
  8 37  1  0
  9 38  1  0
 10 39  1  0
 11 40  1  0
 11 41  1  0
 12 42  1  0
 12 43  1  0
 13 44  1  6
 15 45  1  0
 15 46  1  0
 15 47  1  0
 16 48  1  0
 16 49  1  0
 17 50  1  0
 17 51  1  0
 19 52  1  0
 22 53  1  0
 23 54  1  0
 23 55  1  0
 24 56  1  0
M  END

     RDKit          3D

 47 50  0  0  0  0  0  0  0  0999 V2000
   -3.6079    3.3070    2.2919 C   0  0  0  0  0  0  0  0  0  0  0  0
   -3.5455    2.0496    1.6274 O   0  0  0  0  0  0  0  0  0  0  0  0
   -2.3643    1.4535    1.1573 C   0  0  0  0  0  0  0  0  0  0  0  0
   -1.1051    2.0709    1.2882 C   0  0  0  0  0  0  0  0  0  0  0  0
    0.0598    1.4220    0.8393 C   0  0  0  0  0  0  0  0  0  0  0  0
    1.3338    2.0038    0.9740 C   0  0  0  0  0  0  0  0  0  0  0  0
    1.4592    3.1347    1.5175 O   0  0  0  0  0  0  0  0  0  0  0  0
    2.4672    1.3040    0.5174 C   0  0  0  0  0  0  0  0  0  0  0  0
    3.7614    1.8477    0.5854 O   0  0  0  0  0  0  0  0  0  0  0  0
    4.0958    3.1637    0.1466 C   0  0  0  0  0  0  0  0  0  0  0  0
    2.2833    0.0107   -0.0158 C   0  0  0  0  0  0  0  0  0  0  0  0
    3.4217   -0.8187   -0.4668 C   0  0  0  0  0  0  0  0  0  0  0  0
    4.6041   -0.9231    0.2911 C   0  0  0  0  0  0  0  0  0  0  0  0
    5.6547   -1.7451   -0.1357 C   0  0  0  0  0  0  0  0  0  0  0  0
    5.5288   -2.4702   -1.3262 C   0  0  0  0  0  0  0  0  0  0  0  0
    4.3529   -2.3809   -2.0815 C   0  0  0  0  0  0  0  0  0  0  0  0
    3.3012   -1.5699   -1.6493 C   0  0  0  0  0  0  0  0  0  0  0  0
    1.0579   -0.4903   -0.1479 O   0  0  0  0  0  0  0  0  0  0  0  0
   -0.0396    0.1476    0.2428 C   0  0  0  0  0  0  0  0  0  0  0  0
   -1.2990   -0.4532    0.0783 C   0  0  0  0  0  0  0  0  0  0  0  0
   -2.4509    0.1977    0.5420 C   0  0  0  0  0  0  0  0  0  0  0  0
   -3.6945   -0.4280    0.4040 O   0  0  0  0  0  0  0  0  0  0  0  0
   -3.9255   -1.5429   -0.4692 C   0  0  0  0  0  0  0  0  0  0  0  0
   -4.4609   -1.0165   -1.8078 C   0  0  0  0  0  0  0  0  0  0  0  0
   -4.9655   -2.4601    0.1863 C   0  0  0  0  0  0  0  0  0  0  0  0
   -2.6532   -2.3264   -0.7267 C   0  0  0  0  0  0  0  0  0  0  0  0
   -1.4453   -1.7933   -0.5214 C   0  0  0  0  0  0  0  0  0  0  0  0
   -4.6557    3.5065    2.5844 H   0  0  0  0  0  0  0  0  0  0  0  0
   -3.2721    4.1171    1.6124 H   0  0  0  0  0  0  0  0  0  0  0  0
   -2.9850    3.2887    3.2073 H   0  0  0  0  0  0  0  0  0  0  0  0
   -1.0252    3.0466    1.7464 H   0  0  0  0  0  0  0  0  0  0  0  0
    5.1955    3.2904    0.2244 H   0  0  0  0  0  0  0  0  0  0  0  0
    3.6179    3.9438    0.7788 H   0  0  0  0  0  0  0  0  0  0  0  0
    3.7943    3.2938   -0.9167 H   0  0  0  0  0  0  0  0  0  0  0  0
    4.7087   -0.4034    1.2338 H   0  0  0  0  0  0  0  0  0  0  0  0
    6.5643   -1.8182    0.4504 H   0  0  0  0  0  0  0  0  0  0  0  0
    6.3349   -3.1132   -1.6612 H   0  0  0  0  0  0  0  0  0  0  0  0
    4.2543   -2.9459   -3.0021 H   0  0  0  0  0  0  0  0  0  0  0  0
    2.3972   -1.5220   -2.2430 H   0  0  0  0  0  0  0  0  0  0  0  0
   -5.3847   -0.4173   -1.6477 H   0  0  0  0  0  0  0  0  0  0  0  0
   -3.7039   -0.3656   -2.2995 H   0  0  0  0  0  0  0  0  0  0  0  0
   -4.6959   -1.8569   -2.4962 H   0  0  0  0  0  0  0  0  0  0  0  0
   -4.5821   -2.8383    1.1579 H   0  0  0  0  0  0  0  0  0  0  0  0
   -5.9066   -1.9030    0.3804 H   0  0  0  0  0  0  0  0  0  0  0  0
   -5.1937   -3.3291   -0.4677 H   0  0  0  0  0  0  0  0  0  0  0  0
   -2.7196   -3.3012   -1.1941 H   0  0  0  0  0  0  0  0  0  0  0  0
   -0.5671   -2.3669   -0.7894 H   0  0  0  0  0  0  0  0  0  0  0  0
  1  2  1  0
  2  3  1  0
  3  4  2  0
  4  5  1  0
  5  6  1  0
  6  7  2  0
  6  8  1  0
  8  9  1  0
  9 10  1  0
  8 11  2  0
 11 12  1  0
 12 13  2  0
 13 14  1  0
 14 15  2  0
 15 16  1  0
 16 17  2  0
 11 18  1  0
 18 19  1  0
 19 20  1  0
 20 21  2  0
 21 22  1  0
 22 23  1  0
 23 24  1  0
 23 25  1  0
 23 26  1  0
 26 27  2  0
 21  3  1  0
 19  5  2  0
 27 20  1  0
 17 12  1  0
  1 28  1  0
  1 29  1  0
  1 30  1  0
  4 31  1  0
 10 32  1  0
 10 33  1  0
 10 34  1  0
 13 35  1  0
 14 36  1  0
 15 37  1  0
 16 38  1  0
 17 39  1  0
 24 40  1  0
 24 41  1  0
 24 42  1  0
 25 43  1  0
 25 44  1  0
 25 45  1  0
 26 46  1  0
 27 47  1  0
M  END

     RDKit          3D

 14 14  0  0  0  0  0  0  0  0999 V2000
   -2.4275   -0.4392    0.0327 O   0  0  0  0  0  0  0  0  0  0  0  0
   -1.0407   -0.3023    0.0138 C   0  0  0  0  0  0  0  0  0  0  0  0
   -0.2148   -1.4363    0.0000 C   0  0  0  0  0  0  0  0  0  0  0  0
    1.1757   -1.2921   -0.0189 C   0  0  0  0  0  0  0  0  0  0  0  0
    1.7468   -0.0165   -0.0242 C   0  0  0  0  0  0  0  0  0  0  0  0
    0.9283    1.1169   -0.0105 C   0  0  0  0  0  0  0  0  0  0  0  0
   -0.4676    0.9777    0.0085 C   0  0  0  0  0  0  0  0  0  0  0  0
   -1.2892    2.1033    0.0222 O   0  0  0  0  0  0  0  0  0  0  0  0
   -2.8699   -1.3508    0.0369 H   0  0  0  0  0  0  0  0  0  0  0  0
   -0.6493   -2.4279    0.0040 H   0  0  0  0  0  0  0  0  0  0  0  0
    1.8104   -2.1687   -0.0295 H   0  0  0  0  0  0  0  0  0  0  0  0
    2.8234    0.0939   -0.0388 H   0  0  0  0  0  0  0  0  0  0  0  0
    1.3784    2.1014   -0.0147 H   0  0  0  0  0  0  0  0  0  0  0  0
   -0.9039    3.0405    0.0188 H   0  0  0  0  0  0  0  0  0  0  0  0
  1  2  1  0
  2  3  2  0
  3  4  1  0
  4  5  2  0
  5  6  1  0
  6  7  2  0
  7  8  1  0
  7  2  1  0
  1  9  1  0
  3 10  1  0
  4 11  1  0
  5 12  1  0
  6 13  1  0
  8 14  1  0
M  END

     RDKit          3D

 80 81  0  0  0  0  0  0  0  0999 V2000
   -5.3829   -0.5493   -3.3159 O   0  0  0  0  0  0  0  0  0  0  0  0
   -5.9434   -0.7742   -2.2076 C   0  0  0  0  0  0  0  0  0  0  0  0
   -6.3842    0.3689   -1.3370 C   0  0  0  0  0  0  0  0  0  0  0  0
   -5.4732    1.5950   -1.4716 C   0  0  0  0  0  0  0  0  0  0  0  0
   -5.9166    2.6860   -0.5312 C   0  0  0  0  0  0  0  0  0  0  0  0
   -5.2953    2.8438    0.7151 C   0  0  0  0  0  0  0  0  0  0  0  0
   -5.7359    3.8296    1.6002 C   0  0  0  0  0  0  0  0  0  0  0  0
   -6.8089    4.6641    1.2649 C   0  0  0  0  0  0  0  0  0  0  0  0
   -7.2002    5.6300    2.1949 O   0  0  0  0  0  0  0  0  0  0  0  0
   -7.4520    4.5014    0.0149 C   0  0  0  0  0  0  0  0  0  0  0  0
   -8.5363    5.2854   -0.3842 O   0  0  0  0  0  0  0  0  0  0  0  0
   -6.9973    3.5150   -0.8699 C   0  0  0  0  0  0  0  0  0  0  0  0
   -6.2339   -2.1213   -1.8096 N   0  0  0  0  0  0  0  0  0  0  0  0
   -5.8795   -3.2803   -2.6271 C   0  0  0  0  0  0  0  0  0  0  0  0
   -4.3839   -3.6091   -2.5271 C   0  0  0  0  0  0  0  0  0  0  0  0
   -3.9699   -4.1030   -1.1283 C   0  0  0  0  0  0  0  0  0  0  0  0
   -4.0463   -3.0539   -0.0966 N   0  0  0  0  0  0  0  0  0  0  0  0
   -3.0816   -1.9434   -0.2397 C   0  0  0  0  0  0  0  0  0  0  0  0
   -1.5950   -2.3606   -0.2580 C   0  0  0  0  0  0  0  0  0  0  0  0
   -1.0963   -2.9007    1.0945 C   0  0  0  0  0  0  0  0  0  0  0  0
    0.2888   -3.5792    1.0057 C   0  0  0  0  0  0  0  0  0  0  0  0
    1.3307   -2.7691    0.3546 N   0  0  0  0  0  0  0  0  0  0  0  0
    1.6606   -1.5520    1.1089 C   0  0  0  0  0  0  0  0  0  0  0  0
    2.8184   -0.8037    0.4383 C   0  0  0  0  0  0  0  0  0  0  0  0
    4.1441   -1.5711    0.5421 C   0  0  0  0  0  0  0  0  0  0  0  0
    5.1690   -0.9351   -0.2872 N   0  0  0  0  0  0  0  0  0  0  0  0
    5.7270    0.3491    0.0160 C   0  0  0  0  0  0  0  0  0  0  0  0
    5.4089    0.9401    1.0837 O   0  0  0  0  0  0  0  0  0  0  0  0
    6.6793    0.9843   -0.9626 C   0  0  0  0  0  0  0  0  0  0  0  0
    7.2302    2.3521   -0.5197 C   0  0  0  0  0  0  0  0  0  0  0  0
    8.1174    2.2549    0.6994 C   0  0  0  0  0  0  0  0  0  0  0  0
    7.7269    2.8416    1.9136 C   0  0  0  0  0  0  0  0  0  0  0  0
    8.5552    2.7597    3.0360 C   0  0  0  0  0  0  0  0  0  0  0  0
    9.7813    2.0935    2.9629 C   0  0  0  0  0  0  0  0  0  0  0  0
   10.5856    2.0269    4.1015 O   0  0  0  0  0  0  0  0  0  0  0  0
   10.1835    1.5044    1.7520 C   0  0  0  0  0  0  0  0  0  0  0  0
   11.4044    0.8345    1.6733 O   0  0  0  0  0  0  0  0  0  0  0  0
    9.3539    1.5924    0.6246 C   0  0  0  0  0  0  0  0  0  0  0  0
   -7.4255    0.6416   -1.6170 H   0  0  0  0  0  0  0  0  0  0  0  0
   -6.3857    0.0357   -0.2743 H   0  0  0  0  0  0  0  0  0  0  0  0
   -5.5052    1.9768   -2.5159 H   0  0  0  0  0  0  0  0  0  0  0  0
   -4.4213    1.3050   -1.2548 H   0  0  0  0  0  0  0  0  0  0  0  0
   -4.4720    2.2017    1.0038 H   0  0  0  0  0  0  0  0  0  0  0  0
   -5.2431    3.9445    2.5571 H   0  0  0  0  0  0  0  0  0  0  0  0
   -7.9580    6.2811    2.0482 H   0  0  0  0  0  0  0  0  0  0  0  0
   -8.9418    6.0155    0.1824 H   0  0  0  0  0  0  0  0  0  0  0  0
   -7.4958    3.3870   -1.8239 H   0  0  0  0  0  0  0  0  0  0  0  0
   -6.7933   -2.2822   -0.9417 H   0  0  0  0  0  0  0  0  0  0  0  0
   -6.4731   -4.1603   -2.2966 H   0  0  0  0  0  0  0  0  0  0  0  0
   -6.1490   -3.0848   -3.6880 H   0  0  0  0  0  0  0  0  0  0  0  0
   -3.7687   -2.7459   -2.8510 H   0  0  0  0  0  0  0  0  0  0  0  0
   -4.1709   -4.4267   -3.2489 H   0  0  0  0  0  0  0  0  0  0  0  0
   -4.6551   -4.9314   -0.8385 H   0  0  0  0  0  0  0  0  0  0  0  0
   -2.9608   -4.5619   -1.1635 H   0  0  0  0  0  0  0  0  0  0  0  0
   -3.9369   -3.4966    0.8442 H   0  0  0  0  0  0  0  0  0  0  0  0
   -3.3052   -1.3660   -1.1592 H   0  0  0  0  0  0  0  0  0  0  0  0
   -3.2405   -1.2306    0.5989 H   0  0  0  0  0  0  0  0  0  0  0  0
   -1.0126   -1.4465   -0.5002 H   0  0  0  0  0  0  0  0  0  0  0  0
   -1.3891   -3.0806   -1.0740 H   0  0  0  0  0  0  0  0  0  0  0  0
   -1.0708   -2.0771    1.8390 H   0  0  0  0  0  0  0  0  0  0  0  0
   -1.8008   -3.6630    1.4816 H   0  0  0  0  0  0  0  0  0  0  0  0
    0.1787   -4.5271    0.4359 H   0  0  0  0  0  0  0  0  0  0  0  0
    0.6221   -3.8644    2.0282 H   0  0  0  0  0  0  0  0  0  0  0  0
    1.0399   -2.5189   -0.6185 H   0  0  0  0  0  0  0  0  0  0  0  0
    0.7862   -0.8671    1.1409 H   0  0  0  0  0  0  0  0  0  0  0  0
    1.9443   -1.8106    2.1557 H   0  0  0  0  0  0  0  0  0  0  0  0
    2.5704   -0.6250   -0.6314 H   0  0  0  0  0  0  0  0  0  0  0  0
    2.9273    0.1867    0.9294 H   0  0  0  0  0  0  0  0  0  0  0  0
    4.0019   -2.6168    0.1921 H   0  0  0  0  0  0  0  0  0  0  0  0
    4.4875   -1.6117    1.5991 H   0  0  0  0  0  0  0  0  0  0  0  0
    5.5132   -1.4480   -1.1309 H   0  0  0  0  0  0  0  0  0  0  0  0
    6.1367    1.1259   -1.9211 H   0  0  0  0  0  0  0  0  0  0  0  0
    7.5178    0.2842   -1.1604 H   0  0  0  0  0  0  0  0  0  0  0  0
    7.8242    2.7821   -1.3544 H   0  0  0  0  0  0  0  0  0  0  0  0
    6.3812    3.0485   -0.3395 H   0  0  0  0  0  0  0  0  0  0  0  0
    6.7808    3.3632    1.9937 H   0  0  0  0  0  0  0  0  0  0  0  0
    8.2420    3.2165    3.9663 H   0  0  0  0  0  0  0  0  0  0  0  0
   11.4841    1.5604    4.0967 H   0  0  0  0  0  0  0  0  0  0  0  0
   11.7125    0.3943    0.8142 H   0  0  0  0  0  0  0  0  0  0  0  0
    9.6722    1.1460   -0.3092 H   0  0  0  0  0  0  0  0  0  0  0  0
  1  2  2  0
  2  3  1  0
  3  4  1  0
  4  5  1  0
  5  6  2  0
  6  7  1  0
  7  8  2  0
  8  9  1  0
  8 10  1  0
 10 11  1  0
 10 12  2  0
  2 13  1  0
 13 14  1  0
 14 15  1  0
 15 16  1  0
 16 17  1  0
 17 18  1  0
 18 19  1  0
 19 20  1  0
 20 21  1  0
 21 22  1  0
 22 23  1  0
 23 24  1  0
 24 25  1  0
 25 26  1  0
 26 27  1  0
 27 28  2  0
 27 29  1  0
 29 30  1  0
 30 31  1  0
 31 32  2  0
 32 33  1  0
 33 34  2  0
 34 35  1  0
 34 36  1  0
 36 37  1  0
 36 38  2  0
 12  5  1  0
 38 31  1  0
  3 39  1  0
  3 40  1  0
  4 41  1  0
  4 42  1  0
  6 43  1  0
  7 44  1  0
  9 45  1  0
 11 46  1  0
 12 47  1  0
 13 48  1  0
 14 49  1  0
 14 50  1  0
 15 51  1  0
 15 52  1  0
 16 53  1  0
 16 54  1  0
 17 55  1  0
 18 56  1  0
 18 57  1  0
 19 58  1  0
 19 59  1  0
 20 60  1  0
 20 61  1  0
 21 62  1  0
 21 63  1  0
 22 64  1  0
 23 65  1  0
 23 66  1  0
 24 67  1  0
 24 68  1  0
 25 69  1  0
 25 70  1  0
 26 71  1  0
 29 72  1  0
 29 73  1  0
 30 74  1  0
 30 75  1  0
 32 76  1  0
 33 77  1  0
 35 78  1  0
 37 79  1  0
 38 80  1  0
M  END

     RDKit          3D

 45 48  0  0  0  0  0  0  0  0999 V2000
   -4.6628    2.7618   -1.1404 C   0  0  0  0  0  0  0  0  0  0  0  0
   -5.0418    1.4600   -0.7020 O   0  0  0  0  0  0  0  0  0  0  0  0
   -4.1447    0.4755   -0.2586 C   0  0  0  0  0  0  0  0  0  0  0  0
   -2.7555    0.7002   -0.2122 C   0  0  0  0  0  0  0  0  0  0  0  0
   -1.8711   -0.3070    0.2193 C   0  0  0  0  0  0  0  0  0  0  0  0
   -2.4081   -1.5202    0.7018 C   0  0  0  0  0  0  0  0  0  0  0  0
   -3.7888   -1.7496    0.6350 C   0  0  0  0  0  0  0  0  0  0  0  0
   -4.6532   -0.7662    0.1541 C   0  0  0  0  0  0  0  0  0  0  0  0
   -6.0202   -1.0380    0.1034 O   0  0  0  0  0  0  0  0  0  0  0  0
   -1.5143   -2.5962    1.2517 C   0  0  0  0  0  0  0  0  0  0  0  0
   -0.1897   -2.0065    1.7147 C   0  0  0  0  0  0  0  0  0  0  0  0
    0.4130   -1.2567    0.6022 N   0  0  0  0  0  0  0  0  0  0  0  0
    1.8054   -0.9006    0.9335 C   0  0  0  0  0  0  0  0  0  0  0  0
    2.4554   -0.1286   -0.1904 C   0  0  0  0  0  0  0  0  0  0  0  0
    1.6581    0.5788   -1.1165 C   0  0  0  0  0  0  0  0  0  0  0  0
    2.2727    1.2964   -2.1527 C   0  0  0  0  0  0  0  0  0  0  0  0
    3.6639    1.3417   -2.2549 C   0  0  0  0  0  0  0  0  0  0  0  0
    4.4617    0.6728   -1.3202 C   0  0  0  0  0  0  0  0  0  0  0  0
    5.8516    0.7209   -1.4176 O   0  0  0  0  0  0  0  0  0  0  0  0
    3.8618   -0.0508   -0.2804 C   0  0  0  0  0  0  0  0  0  0  0  0
    4.6703   -0.7034    0.6527 O   0  0  0  0  0  0  0  0  0  0  0  0
    5.0812   -0.0584    1.8534 C   0  0  0  0  0  0  0  0  0  0  0  0
    0.1512    0.5199   -1.0603 C   0  0  0  0  0  0  0  0  0  0  0  0
   -0.3664   -0.0357    0.2829 C   0  0  1  0  0  0  0  0  0  0  0  0
   -4.1584    3.3107   -0.3171 H   0  0  0  0  0  0  0  0  0  0  0  0
   -5.5732    3.3217   -1.4297 H   0  0  0  0  0  0  0  0  0  0  0  0
   -3.9910    2.6910   -2.0230 H   0  0  0  0  0  0  0  0  0  0  0  0
   -2.3611    1.6622   -0.5018 H   0  0  0  0  0  0  0  0  0  0  0  0
   -4.1973   -2.6946    0.9718 H   0  0  0  0  0  0  0  0  0  0  0  0
   -6.6917   -0.3612   -0.2337 H   0  0  0  0  0  0  0  0  0  0  0  0
   -2.0035   -3.1036    2.1117 H   0  0  0  0  0  0  0  0  0  0  0  0
   -1.3273   -3.3516    0.4577 H   0  0  0  0  0  0  0  0  0  0  0  0
   -0.3495   -1.3475    2.5993 H   0  0  0  0  0  0  0  0  0  0  0  0
    0.4712   -2.8485    2.0198 H   0  0  0  0  0  0  0  0  0  0  0  0
    1.8397   -0.2838    1.8597 H   0  0  0  0  0  0  0  0  0  0  0  0
    2.3863   -1.8338    1.1101 H   0  0  0  0  0  0  0  0  0  0  0  0
    1.6712    1.8231   -2.8830 H   0  0  0  0  0  0  0  0  0  0  0  0
    4.1204    1.8988   -3.0626 H   0  0  0  0  0  0  0  0  0  0  0  0
    6.3129    1.2321   -2.1603 H   0  0  0  0  0  0  0  0  0  0  0  0
    5.6289    0.8806    1.6168 H   0  0  0  0  0  0  0  0  0  0  0  0
    5.7498   -0.7367    2.4214 H   0  0  0  0  0  0  0  0  0  0  0  0
    4.1978    0.1772    2.4825 H   0  0  0  0  0  0  0  0  0  0  0  0
   -0.2047   -0.1268   -1.8922 H   0  0  0  0  0  0  0  0  0  0  0  0
   -0.2427    1.5454   -1.2186 H   0  0  0  0  0  0  0  0  0  0  0  0
   -0.2077    0.7350    1.0727 H   0  0  0  0  0  0  0  0  0  0  0  0
  1  2  1  0
  2  3  1  0
  3  4  2  0
  4  5  1  0
  5  6  2  0
  6  7  1  0
  7  8  2  0
  8  9  1  0
  6 10  1  0
 10 11  1  0
 11 12  1  0
 12 13  1  0
 13 14  1  0
 14 15  2  0
 15 16  1  0
 16 17  2  0
 17 18  1  0
 18 19  1  0
 18 20  2  0
 20 21  1  0
 21 22  1  0
 15 23  1  0
 23 24  1  0
  8  3  1  0
 24 12  1  0
 24  5  1  0
 20 14  1  0
  1 25  1  0
  1 26  1  0
  1 27  1  0
  4 28  1  0
  7 29  1  0
  9 30  1  0
 10 31  1  0
 10 32  1  0
 11 33  1  0
 11 34  1  0
 13 35  1  0
 13 36  1  0
 16 37  1  0
 17 38  1  0
 19 39  1  0
 22 40  1  0
 22 41  1  0
 22 42  1  0
 23 43  1  0
 23 44  1  0
 24 45  1  1
M  END

     RDKit          3D

 46 48  0  0  0  0  0  0  0  0999 V2000
    4.1572    1.0236   -0.6241 C   0  0  0  0  0  0  0  0  0  0  0  0
    4.1055    0.4918    0.6039 C   0  0  0  0  0  0  0  0  0  0  0  0
    5.3867    0.2629    1.3677 C   0  0  0  0  0  0  0  0  0  0  0  0
    2.8123    0.0458    1.1731 C   0  0  0  0  0  0  0  0  0  0  0  0
    2.7755   -0.4246    2.3450 O   0  0  0  0  0  0  0  0  0  0  0  0
    1.6403    0.1214    0.4075 O   0  0  0  0  0  0  0  0  0  0  0  0
    0.3472   -0.2762    0.8737 C   0  0  1  0  0  0  0  0  0  0  0  0
   -0.4158    0.9939    1.3577 C   0  0  0  0  0  0  0  0  0  0  0  0
   -0.8914    1.9902    0.2598 C   0  0  1  0  0  0  0  0  0  0  0  0
    0.1978    2.9560   -0.2174 C   0  0  0  0  0  0  0  0  0  0  0  0
   -1.4171    1.2569   -0.8241 O   0  0  0  0  0  0  0  0  0  0  0  0
   -2.7886    1.1382   -0.6994 C   0  0  0  0  0  0  0  0  0  0  0  0
   -3.2861    2.0565    0.1184 C   0  0  0  0  0  0  0  0  0  0  0  0
   -2.1294    2.7023    0.7207 C   0  0  0  0  0  0  0  0  0  0  0  0
   -2.1756    3.6226    1.5785 O   0  0  0  0  0  0  0  0  0  0  0  0
   -3.4988   -0.0432   -1.2041 C   0  0  0  0  0  0  0  0  0  0  0  0
   -4.7292    0.0784   -1.7216 C   0  0  0  0  0  0  0  0  0  0  0  0
   -2.8155   -1.4036   -1.1441 C   0  0  1  0  0  0  0  0  0  0  0  0
   -2.1771   -1.6517   -2.3702 O   0  0  0  0  0  0  0  0  0  0  0  0
   -1.8314   -1.5796    0.0686 C   0  0  1  0  0  0  0  0  0  0  0  0
   -1.7847   -2.9662    0.4126 O   0  0  0  0  0  0  0  0  0  0  0  0
   -0.5411   -3.5056    0.1836 C   0  0  0  0  0  0  0  0  0  0  0  0
   -0.2583   -4.7186    0.3830 O   0  0  0  0  0  0  0  0  0  0  0  0
    0.3721   -2.4989   -0.2830 C   0  0  0  0  0  0  0  0  0  0  0  0
    1.6015   -2.7265   -0.7461 C   0  0  0  0  0  0  0  0  0  0  0  0
   -0.3282   -1.1680   -0.2260 C   0  0  2  0  0  0  0  0  0  0  0  0
    3.2582    1.1774   -1.2116 H   0  0  0  0  0  0  0  0  0  0  0  0
    5.1011    1.3280   -1.0560 H   0  0  0  0  0  0  0  0  0  0  0  0
    6.1667    1.0056    1.0831 H   0  0  0  0  0  0  0  0  0  0  0  0
    5.2158    0.3518    2.4639 H   0  0  0  0  0  0  0  0  0  0  0  0
    5.7731   -0.7562    1.1415 H   0  0  0  0  0  0  0  0  0  0  0  0
    0.4531   -0.9259    1.7748 H   0  0  0  0  0  0  0  0  0  0  0  0
    0.2313    1.5407    2.0774 H   0  0  0  0  0  0  0  0  0  0  0  0
   -1.2851    0.6596    1.9642 H   0  0  0  0  0  0  0  0  0  0  0  0
   -0.2165    3.6435   -0.9925 H   0  0  0  0  0  0  0  0  0  0  0  0
    1.0466    2.3985   -0.6687 H   0  0  0  0  0  0  0  0  0  0  0  0
    0.5721    3.5657    0.6368 H   0  0  0  0  0  0  0  0  0  0  0  0
   -4.3143    2.1370    0.4436 H   0  0  0  0  0  0  0  0  0  0  0  0
   -5.2621   -0.7865   -2.1013 H   0  0  0  0  0  0  0  0  0  0  0  0
   -5.2163    1.0452   -1.7742 H   0  0  0  0  0  0  0  0  0  0  0  0
   -3.6267   -2.1587   -1.0026 H   0  0  0  0  0  0  0  0  0  0  0  0
   -1.9867   -2.6241   -2.4082 H   0  0  0  0  0  0  0  0  0  0  0  0
   -2.2456   -1.0446    0.9474 H   0  0  0  0  0  0  0  0  0  0  0  0
    2.2088   -1.9123   -1.1187 H   0  0  0  0  0  0  0  0  0  0  0  0
    2.0043   -3.7316   -0.7700 H   0  0  0  0  0  0  0  0  0  0  0  0
   -0.2060   -0.6906   -1.2228 H   0  0  0  0  0  0  0  0  0  0  0  0
  1  2  2  3
  2  3  1  0
  2  4  1  0
  4  5  2  0
  4  6  1  0
  6  7  1  0
  7  8  1  0
  8  9  1  0
  9 10  1  6
  9 11  1  0
 11 12  1  0
 12 13  2  0
 13 14  1  0
 14 15  2  0
 12 16  1  0
 16 17  2  3
 16 18  1  0
 18 19  1  0
 18 20  1  0
 20 21  1  0
 21 22  1  0
 22 23  2  0
 22 24  1  0
 24 25  2  3
 24 26  1  0
 26  7  1  0
 14  9  1  0
 26 20  1  0
  1 27  1  0
  1 28  1  0
  3 29  1  0
  3 30  1  0
  3 31  1  0
  7 32  1  1
  8 33  1  0
  8 34  1  0
 10 35  1  0
 10 36  1  0
 10 37  1  0
 13 38  1  0
 17 39  1  0
 17 40  1  0
 18 41  1  1
 19 42  1  0
 20 43  1  1
 25 44  1  0
 25 45  1  0
 26 46  1  6
M  END

     RDKit          3D

 38 40  0  0  0  0  0  0  0  0999 V2000
    6.0074    0.2434    0.4378 C   0  0  0  0  0  0  0  0  0  0  0  0
    5.1325   -0.8364    0.1278 O   0  0  0  0  0  0  0  0  0  0  0  0
    3.7442   -0.7275    0.2440 C   0  0  0  0  0  0  0  0  0  0  0  0
    3.0817   -1.5737    1.1375 C   0  0  0  0  0  0  0  0  0  0  0  0
    3.8152   -2.4907    1.8898 O   0  0  0  0  0  0  0  0  0  0  0  0
    1.6946   -1.4988    1.2724 C   0  0  0  0  0  0  0  0  0  0  0  0
    0.9624   -0.5660    0.5374 C   0  0  0  0  0  0  0  0  0  0  0  0
    1.6117    0.2917   -0.3746 C   0  0  0  0  0  0  0  0  0  0  0  0
    3.0137    0.1762   -0.5543 C   0  0  0  0  0  0  0  0  0  0  0  0
    3.6984    0.8797   -1.5467 O   0  0  0  0  0  0  0  0  0  0  0  0
    0.7659    1.2753   -1.0946 C   0  0  0  0  0  0  0  0  0  0  0  0
    1.2608    2.3218   -1.5934 O   0  0  0  0  0  0  0  0  0  0  0  0
   -0.7180    1.0322   -1.1841 C   0  0  2  0  0  0  0  0  0  0  0  0
   -1.3866    2.2168   -1.5437 O   0  0  0  0  0  0  0  0  0  0  0  0
   -1.2301    0.5545    0.1882 C   0  0  1  0  0  0  0  0  0  0  0  0
   -2.6847    0.1261    0.1220 C   0  0  0  0  0  0  0  0  0  0  0  0
   -3.6633    1.0032    0.6290 C   0  0  0  0  0  0  0  0  0  0  0  0
   -5.0232    0.6714    0.5754 C   0  0  0  0  0  0  0  0  0  0  0  0
   -5.9858    1.5408    1.0800 O   0  0  0  0  0  0  0  0  0  0  0  0
   -5.4218   -0.5402    0.0088 C   0  0  0  0  0  0  0  0  0  0  0  0
   -4.4679   -1.4160   -0.5074 C   0  0  0  0  0  0  0  0  0  0  0  0
   -3.1045   -1.0955   -0.4691 C   0  0  0  0  0  0  0  0  0  0  0  0
   -2.2140   -2.0145   -1.0279 O   0  0  0  0  0  0  0  0  0  0  0  0
   -0.4264   -0.5055    0.7117 O   0  0  0  0  0  0  0  0  0  0  0  0
    7.0550   -0.0830    0.2741 H   0  0  0  0  0  0  0  0  0  0  0  0
    5.8810    0.5353    1.5047 H   0  0  0  0  0  0  0  0  0  0  0  0
    5.8061    1.1236   -0.2107 H   0  0  0  0  0  0  0  0  0  0  0  0
    3.3734   -3.1159    2.5500 H   0  0  0  0  0  0  0  0  0  0  0  0
    1.1859   -2.1593    1.9613 H   0  0  0  0  0  0  0  0  0  0  0  0
    3.2459    1.3537   -2.3148 H   0  0  0  0  0  0  0  0  0  0  0  0
   -0.8944    0.2395   -1.9472 H   0  0  0  0  0  0  0  0  0  0  0  0
   -1.4120    2.2454   -2.5398 H   0  0  0  0  0  0  0  0  0  0  0  0
   -1.1229    1.4103    0.8942 H   0  0  0  0  0  0  0  0  0  0  0  0
   -3.3700    1.9506    1.0618 H   0  0  0  0  0  0  0  0  0  0  0  0
   -5.7304    2.4458    1.4652 H   0  0  0  0  0  0  0  0  0  0  0  0
   -6.4723   -0.7995   -0.0361 H   0  0  0  0  0  0  0  0  0  0  0  0
   -4.7911   -2.3474   -0.9530 H   0  0  0  0  0  0  0  0  0  0  0  0
   -1.2166   -1.8675   -1.0961 H   0  0  0  0  0  0  0  0  0  0  0  0
  1  2  1  0
  2  3  1  0
  3  4  2  0
  4  5  1  0
  4  6  1  0
  6  7  2  0
  7  8  1  0
  8  9  2  0
  9 10  1  0
  8 11  1  0
 11 12  2  0
 11 13  1  0
 13 14  1  0
 13 15  1  0
 15 16  1  0
 16 17  2  0
 17 18  1  0
 18 19  1  0
 18 20  2  0
 20 21  1  0
 21 22  2  0
 22 23  1  0
 15 24  1  0
  9  3  1  0
 22 16  1  0
 24  7  1  0
  1 25  1  0
  1 26  1  0
  1 27  1  0
  5 28  1  0
  6 29  1  0
 10 30  1  0
 13 31  1  6
 14 32  1  0
 15 33  1  1
 17 34  1  0
 19 35  1  0
 20 36  1  0
 21 37  1  0
 23 38  1  0
M  END

     RDKit          3D

 45 47  0  0  0  0  0  0  0  0999 V2000
    4.6490    1.7973   -0.9903 C   0  0  0  0  0  0  0  0  0  0  0  0
    4.2790    0.9828    0.1225 O   0  0  0  0  0  0  0  0  0  0  0  0
    3.1298    0.1862    0.1331 C   0  0  0  0  0  0  0  0  0  0  0  0
    3.2730   -1.2085    0.2008 C   0  0  0  0  0  0  0  0  0  0  0  0
    4.5418   -1.7909    0.3158 O   0  0  0  0  0  0  0  0  0  0  0  0
    5.4008   -1.5614    1.4244 C   0  0  0  0  0  0  0  0  0  0  0  0
    2.1442   -2.0412    0.1118 C   0  0  0  0  0  0  0  0  0  0  0  0
    2.3119   -3.4306    0.1103 O   0  0  0  0  0  0  0  0  0  0  0  0
    0.8503   -1.4697    0.0455 C   0  0  0  0  0  0  0  0  0  0  0  0
   -0.3259   -2.2447   -0.0321 C   0  0  0  0  0  0  0  0  0  0  0  0
   -0.2654   -3.5030   -0.0873 O   0  0  0  0  0  0  0  0  0  0  0  0
   -1.5821   -1.6143   -0.0072 C   0  0  0  0  0  0  0  0  0  0  0  0
   -2.7738   -2.3377   -0.1476 O   0  0  0  0  0  0  0  0  0  0  0  0
   -3.0190   -3.2450   -1.2088 C   0  0  0  0  0  0  0  0  0  0  0  0
   -1.6331   -0.2188    0.1688 C   0  0  0  0  0  0  0  0  0  0  0  0
   -2.9145    0.5141    0.3445 C   0  0  0  0  0  0  0  0  0  0  0  0
   -3.9727   -0.0119    1.1116 C   0  0  0  0  0  0  0  0  0  0  0  0
   -5.1325    0.7387    1.3272 C   0  0  0  0  0  0  0  0  0  0  0  0
   -5.2494    2.0271    0.7952 C   0  0  0  0  0  0  0  0  0  0  0  0
   -6.4017    2.7688    1.0384 O   0  0  0  0  0  0  0  0  0  0  0  0
   -4.2017    2.5612    0.0366 C   0  0  0  0  0  0  0  0  0  0  0  0
   -3.0448    1.8109   -0.1846 C   0  0  0  0  0  0  0  0  0  0  0  0
   -0.5022    0.4817    0.1565 O   0  0  0  0  0  0  0  0  0  0  0  0
    0.7083   -0.0656    0.0756 C   0  0  0  0  0  0  0  0  0  0  0  0
    1.8486    0.7600    0.0662 C   0  0  0  0  0  0  0  0  0  0  0  0
    1.7255    2.1526    0.0381 O   0  0  0  0  0  0  0  0  0  0  0  0
    1.0975    2.8427   -1.0374 C   0  0  0  0  0  0  0  0  0  0  0  0
    3.9662    2.6706   -1.0860 H   0  0  0  0  0  0  0  0  0  0  0  0
    4.6279    1.1886   -1.9256 H   0  0  0  0  0  0  0  0  0  0  0  0
    5.6826    2.1768   -0.8257 H   0  0  0  0  0  0  0  0  0  0  0  0
    5.7221   -0.4978    1.4834 H   0  0  0  0  0  0  0  0  0  0  0  0
    4.8842   -1.8465    2.3717 H   0  0  0  0  0  0  0  0  0  0  0  0
    6.3139   -2.1944    1.3171 H   0  0  0  0  0  0  0  0  0  0  0  0
    3.2229   -3.8713    0.1576 H   0  0  0  0  0  0  0  0  0  0  0  0
   -4.0652   -3.6074   -1.1417 H   0  0  0  0  0  0  0  0  0  0  0  0
   -2.8783   -2.7331   -2.1875 H   0  0  0  0  0  0  0  0  0  0  0  0
   -2.3536   -4.1245   -1.1480 H   0  0  0  0  0  0  0  0  0  0  0  0
   -3.8967   -0.9873    1.5699 H   0  0  0  0  0  0  0  0  0  0  0  0
   -5.9317    0.3245    1.9300 H   0  0  0  0  0  0  0  0  0  0  0  0
   -6.5170    3.7113    0.6744 H   0  0  0  0  0  0  0  0  0  0  0  0
   -4.2811    3.5629   -0.3744 H   0  0  0  0  0  0  0  0  0  0  0  0
   -2.2510    2.2435   -0.7874 H   0  0  0  0  0  0  0  0  0  0  0  0
    1.6454    2.6488   -1.9851 H   0  0  0  0  0  0  0  0  0  0  0  0
    0.0467    2.5244   -1.1510 H   0  0  0  0  0  0  0  0  0  0  0  0
    1.1216    3.9297   -0.8189 H   0  0  0  0  0  0  0  0  0  0  0  0
  1  2  1  0
  2  3  1  0
  3  4  2  0
  4  5  1  0
  5  6  1  0
  4  7  1  0
  7  8  1  0
  7  9  2  0
  9 10  1  0
 10 11  2  0
 10 12  1  0
 12 13  1  0
 13 14  1  0
 12 15  2  0
 15 16  1  0
 16 17  2  0
 17 18  1  0
 18 19  2  0
 19 20  1  0
 19 21  1  0
 21 22  2  0
 15 23  1  0
 23 24  1  0
 24 25  2  0
 25 26  1  0
 26 27  1  0
 25  3  1  0
 24  9  1  0
 22 16  1  0
  1 28  1  0
  1 29  1  0
  1 30  1  0
  6 31  1  0
  6 32  1  0
  6 33  1  0
  8 34  1  0
 14 35  1  0
 14 36  1  0
 14 37  1  0
 17 38  1  0
 18 39  1  0
 20 40  1  0
 21 41  1  0
 22 42  1  0
 27 43  1  0
 27 44  1  0
 27 45  1  0
M  END

     RDKit          3D

 51 53  0  0  0  0  0  0  0  0999 V2000
   -3.1609    4.7925    0.6739 C   0  0  0  0  0  0  0  0  0  0  0  0
   -2.9072    3.8847   -0.3872 O   0  0  0  0  0  0  0  0  0  0  0  0
   -1.9526    2.8746   -0.2725 C   0  0  0  0  0  0  0  0  0  0  0  0
   -2.3063    1.6240    0.2633 C   0  0  0  0  0  0  0  0  0  0  0  0
   -3.6168    1.3673    0.6740 O   0  0  0  0  0  0  0  0  0  0  0  0
   -1.3341    0.6160    0.3903 C   0  0  0  0  0  0  0  0  0  0  0  0
   -1.7181   -0.7403    0.9370 C   0  0  0  0  0  0  0  0  0  0  0  0
   -2.3639   -1.5555   -0.1526 C   0  0  0  0  0  0  0  0  0  0  0  0
   -3.5266   -2.2322   -0.0323 C   0  0  0  0  0  0  0  0  0  0  0  0
   -4.0626   -2.9680   -1.2386 C   0  0  0  0  0  0  0  0  0  0  0  0
   -4.3133   -2.2636    1.2609 C   0  0  0  0  0  0  0  0  0  0  0  0
   -0.0334    0.8439   -0.0935 C   0  0  0  0  0  0  0  0  0  0  0  0
    0.3167    2.0823   -0.6715 C   0  0  0  0  0  0  0  0  0  0  0  0
   -0.6449    3.1198   -0.7115 C   0  0  0  0  0  0  0  0  0  0  0  0
   -0.3425    4.4094   -1.1563 O   0  0  0  0  0  0  0  0  0  0  0  0
    1.6834    2.2095   -1.2432 C   0  0  0  0  0  0  0  0  0  0  0  0
    1.9531    3.0926   -2.1021 O   0  0  0  0  0  0  0  0  0  0  0  0
    2.7439    1.2304   -0.8171 C   0  0  2  0  0  0  0  0  0  0  0  0
    3.8136    1.2191   -1.7338 O   0  0  0  0  0  0  0  0  0  0  0  0
    2.1192   -0.1743   -0.7590 C   0  0  1  0  0  0  0  0  0  0  0  0
    3.0945   -1.1662   -0.1810 C   0  0  0  0  0  0  0  0  0  0  0  0
    3.4377   -1.0799    1.1846 C   0  0  0  0  0  0  0  0  0  0  0  0
    4.3577   -1.9717    1.7398 C   0  0  0  0  0  0  0  0  0  0  0  0
    4.7157   -1.8755    3.0849 O   0  0  0  0  0  0  0  0  0  0  0  0
    4.9286   -2.9595    0.9394 C   0  0  0  0  0  0  0  0  0  0  0  0
    4.6016   -3.0514   -0.4206 C   0  0  0  0  0  0  0  0  0  0  0  0
    3.6849   -2.1561   -0.9868 C   0  0  0  0  0  0  0  0  0  0  0  0
    3.3580   -2.2572   -2.3402 O   0  0  0  0  0  0  0  0  0  0  0  0
    0.9240   -0.1719    0.0147 O   0  0  0  0  0  0  0  0  0  0  0  0
   -2.2327    5.3393    0.9345 H   0  0  0  0  0  0  0  0  0  0  0  0
   -3.9262    5.5248    0.3538 H   0  0  0  0  0  0  0  0  0  0  0  0
   -3.5329    4.2463    1.5643 H   0  0  0  0  0  0  0  0  0  0  0  0
   -4.3565    2.0493    0.5793 H   0  0  0  0  0  0  0  0  0  0  0  0
   -2.3836   -0.6031    1.8085 H   0  0  0  0  0  0  0  0  0  0  0  0
   -0.8310   -1.2937    1.3046 H   0  0  0  0  0  0  0  0  0  0  0  0
   -1.8254   -1.6252   -1.0948 H   0  0  0  0  0  0  0  0  0  0  0  0
   -3.4592   -3.8861   -1.4083 H   0  0  0  0  0  0  0  0  0  0  0  0
   -4.0119   -2.3210   -2.1475 H   0  0  0  0  0  0  0  0  0  0  0  0
   -5.1286   -3.2659   -1.0916 H   0  0  0  0  0  0  0  0  0  0  0  0
   -5.1868   -2.9449    1.1819 H   0  0  0  0  0  0  0  0  0  0  0  0
   -4.6934   -1.2483    1.5101 H   0  0  0  0  0  0  0  0  0  0  0  0
   -3.6656   -2.6428    2.0823 H   0  0  0  0  0  0  0  0  0  0  0  0
    0.5968    4.7651   -1.2255 H   0  0  0  0  0  0  0  0  0  0  0  0
    3.1041    1.5241    0.1973 H   0  0  0  0  0  0  0  0  0  0  0  0
    4.4045    1.9830   -1.4962 H   0  0  0  0  0  0  0  0  0  0  0  0
    1.8370   -0.4695   -1.7912 H   0  0  0  0  0  0  0  0  0  0  0  0
    2.9991   -0.3090    1.8131 H   0  0  0  0  0  0  0  0  0  0  0  0
    4.3489   -1.1445    3.6702 H   0  0  0  0  0  0  0  0  0  0  0  0
    5.6546   -3.6463    1.3607 H   0  0  0  0  0  0  0  0  0  0  0  0
    5.0698   -3.8110   -1.0332 H   0  0  0  0  0  0  0  0  0  0  0  0
    3.7696   -2.9634   -2.9356 H   0  0  0  0  0  0  0  0  0  0  0  0
  1  2  1  0
  2  3  1  0
  3  4  2  0
  4  5  1  0
  4  6  1  0
  6  7  1  0
  7  8  1  0
  8  9  2  3
  9 10  1  0
  9 11  1  0
  6 12  2  0
 12 13  1  0
 13 14  2  0
 14 15  1  0
 13 16  1  0
 16 17  2  0
 16 18  1  0
 18 19  1  0
 18 20  1  0
 20 21  1  0
 21 22  2  0
 22 23  1  0
 23 24  1  0
 23 25  2  0
 25 26  1  0
 26 27  2  0
 27 28  1  0
 20 29  1  0
 14  3  1  0
 27 21  1  0
 29 12  1  0
  1 30  1  0
  1 31  1  0
  1 32  1  0
  5 33  1  0
  7 34  1  0
  7 35  1  0
  8 36  1  0
 10 37  1  0
 10 38  1  0
 10 39  1  0
 11 40  1  0
 11 41  1  0
 11 42  1  0
 15 43  1  0
 18 44  1  1
 19 45  1  0
 20 46  1  6
 22 47  1  0
 24 48  1  0
 25 49  1  0
 26 50  1  0
 28 51  1  0
M  END

     RDKit          3D

 31 33  0  0  0  0  0  0  0  0999 V2000
    3.7891    2.3570   -1.2957 C   0  0  0  0  0  0  0  0  0  0  0  0
    3.5476    1.1540   -0.7642 C   0  0  0  0  0  0  0  0  0  0  0  0
    4.6878    0.2223   -0.4544 C   0  0  0  0  0  0  0  0  0  0  0  0
    2.1574    0.7346   -0.4787 C   0  0  0  0  0  0  0  0  0  0  0  0
    1.7704   -0.4873    0.0720 C   0  0  0  0  0  0  0  0  0  0  0  0
    0.3982   -0.4114    0.1449 C   0  0  0  0  0  0  0  0  0  0  0  0
    0.0370    0.8107   -0.3485 C   0  0  0  0  0  0  0  0  0  0  0  0
   -1.2936    1.2144   -0.4185 C   0  0  0  0  0  0  0  0  0  0  0  0
   -2.2956    0.3209    0.0393 C   0  0  0  0  0  0  0  0  0  0  0  0
   -3.6580    0.6613   -0.0014 O   0  0  0  0  0  0  0  0  0  0  0  0
   -4.1657    1.8985   -0.4900 C   0  0  0  0  0  0  0  0  0  0  0  0
   -1.9149   -0.9512    0.5525 C   0  0  0  0  0  0  0  0  0  0  0  0
   -2.8585   -1.8765    1.0194 C   0  0  0  0  0  0  0  0  0  0  0  0
   -2.4303   -3.1095    1.5123 C   0  0  0  0  0  0  0  0  0  0  0  0
   -1.0615   -3.3985    1.5306 C   0  0  0  0  0  0  0  0  0  0  0  0
   -0.6595   -4.5065    1.9722 O   0  0  0  0  0  0  0  0  0  0  0  0
   -0.1793   -2.5094    1.0838 O   0  0  0  0  0  0  0  0  0  0  0  0
   -0.5454   -1.3234    0.6062 C   0  0  0  0  0  0  0  0  0  0  0  0
    1.0963    1.4873   -0.7182 O   0  0  0  0  0  0  0  0  0  0  0  0
    2.9826    3.0420   -1.5260 H   0  0  0  0  0  0  0  0  0  0  0  0
    4.7994    2.6813   -1.5116 H   0  0  0  0  0  0  0  0  0  0  0  0
    5.6731    0.6635   -0.7182 H   0  0  0  0  0  0  0  0  0  0  0  0
    4.5643   -0.7198   -1.0287 H   0  0  0  0  0  0  0  0  0  0  0  0
    4.6917   -0.0121    0.6308 H   0  0  0  0  0  0  0  0  0  0  0  0
    2.4003   -1.3132    0.3759 H   0  0  0  0  0  0  0  0  0  0  0  0
   -1.5339    2.1906   -0.8164 H   0  0  0  0  0  0  0  0  0  0  0  0
   -5.2715    1.8957   -0.4040 H   0  0  0  0  0  0  0  0  0  0  0  0
   -3.8925    2.0279   -1.5585 H   0  0  0  0  0  0  0  0  0  0  0  0
   -3.7644    2.7405    0.1126 H   0  0  0  0  0  0  0  0  0  0  0  0
   -3.9180   -1.6533    1.0055 H   0  0  0  0  0  0  0  0  0  0  0  0
   -3.1526   -3.8304    1.8751 H   0  0  0  0  0  0  0  0  0  0  0  0
  1  2  2  3
  2  3  1  0
  2  4  1  0
  4  5  2  0
  5  6  1  0
  6  7  2  0
  7  8  1  0
  8  9  2  0
  9 10  1  0
 10 11  1  0
  9 12  1  0
 12 13  1  0
 13 14  2  0
 14 15  1  0
 15 16  2  0
 15 17  1  0
 17 18  1  0
  7 19  1  0
 19  4  1  0
 18  6  1  0
 18 12  2  0
  1 20  1  0
  1 21  1  0
  3 22  1  0
  3 23  1  0
  3 24  1  0
  5 25  1  0
  8 26  1  0
 11 27  1  0
 11 28  1  0
 11 29  1  0
 13 30  1  0
 14 31  1  0
M  END

     RDKit          3D

 41 43  0  0  0  0  0  0  0  0999 V2000
   -2.1941   -2.4248    2.3270 C   0  0  0  0  0  0  0  0  0  0  0  0
   -1.3174   -1.9589    1.4226 C   0  0  0  0  0  0  0  0  0  0  0  0
   -1.6660   -1.2879    0.0880 C   0  0  0  0  0  0  0  0  0  0  0  0
   -3.2027   -1.1858   -0.1122 C   0  0  0  0  0  0  0  0  0  0  0  0
   -1.1591   -2.2040   -1.0541 C   0  0  0  0  0  0  0  0  0  0  0  0
   -0.9233    0.0822    0.0201 C   0  0  0  0  0  0  0  0  0  0  0  0
    0.4909    0.1070    0.0584 C   0  0  0  0  0  0  0  0  0  0  0  0
    1.3051   -0.9180    0.1553 O   0  0  0  0  0  0  0  0  0  0  0  0
    2.5463   -0.4726    0.1585 C   0  0  0  0  0  0  0  0  0  0  0  0
    3.7355   -1.3475    0.2512 C   0  0  0  0  0  0  0  0  0  0  0  0
    3.5862   -2.6755    0.3060 C   0  0  0  0  0  0  0  0  0  0  0  0
    5.1115   -0.7399    0.2730 C   0  0  0  0  0  0  0  0  0  0  0  0
    2.5557    0.9128    0.0614 C   0  0  0  0  0  0  0  0  0  0  0  0
    1.2237    1.2653   -0.0004 C   0  0  0  0  0  0  0  0  0  0  0  0
    0.6279    2.5175   -0.0961 C   0  0  0  0  0  0  0  0  0  0  0  0
    1.3910    3.6857   -0.1600 O   0  0  0  0  0  0  0  0  0  0  0  0
   -0.7787    2.5697   -0.1218 C   0  0  0  0  0  0  0  0  0  0  0  0
   -1.4463    3.7997   -0.2053 C   0  0  0  0  0  0  0  0  0  0  0  0
   -2.8355    3.8336   -0.2177 C   0  0  0  0  0  0  0  0  0  0  0  0
   -3.5369    2.6333   -0.1458 C   0  0  0  0  0  0  0  0  0  0  0  0
   -4.7955    2.6402   -0.1491 O   0  0  0  0  0  0  0  0  0  0  0  0
   -2.8867    1.4771   -0.0718 O   0  0  0  0  0  0  0  0  0  0  0  0
   -1.5598    1.3697   -0.0581 C   0  0  0  0  0  0  0  0  0  0  0  0
   -3.2681   -2.3595    2.2027 H   0  0  0  0  0  0  0  0  0  0  0  0
   -1.8260   -2.8968    3.2324 H   0  0  0  0  0  0  0  0  0  0  0  0
   -0.2683   -2.1058    1.6584 H   0  0  0  0  0  0  0  0  0  0  0  0
   -3.4427   -0.7064   -1.0854 H   0  0  0  0  0  0  0  0  0  0  0  0
   -3.6694   -2.1950   -0.1327 H   0  0  0  0  0  0  0  0  0  0  0  0
   -3.6862   -0.6228    0.7139 H   0  0  0  0  0  0  0  0  0  0  0  0
   -1.2554   -1.6901   -2.0354 H   0  0  0  0  0  0  0  0  0  0  0  0
   -0.1035   -2.5121   -0.9229 H   0  0  0  0  0  0  0  0  0  0  0  0
   -1.7470   -3.1466   -1.0978 H   0  0  0  0  0  0  0  0  0  0  0  0
    2.6045   -3.1322    0.2869 H   0  0  0  0  0  0  0  0  0  0  0  0
    4.4433   -3.3341    0.3687 H   0  0  0  0  0  0  0  0  0  0  0  0
    5.2820   -0.1760   -0.6685 H   0  0  0  0  0  0  0  0  0  0  0  0
    5.1963   -0.0434    1.1332 H   0  0  0  0  0  0  0  0  0  0  0  0
    5.9080   -1.5098    0.3709 H   0  0  0  0  0  0  0  0  0  0  0  0
    3.4174    1.5659    0.0399 H   0  0  0  0  0  0  0  0  0  0  0  0
    2.4029    3.6726   -0.1452 H   0  0  0  0  0  0  0  0  0  0  0  0
   -0.9001    4.7332   -0.2580 H   0  0  0  0  0  0  0  0  0  0  0  0
   -3.3596    4.7798   -0.2779 H   0  0  0  0  0  0  0  0  0  0  0  0
  1  2  2  3
  2  3  1  0
  3  4  1  0
  3  5  1  0
  3  6  1  0
  6  7  2  0
  7  8  1  0
  8  9  1  0
  9 10  1  0
 10 11  2  3
 10 12  1  0
  9 13  2  0
 13 14  1  0
 14 15  2  0
 15 16  1  0
 15 17  1  0
 17 18  1  0
 18 19  2  0
 19 20  1  0
 20 21  2  0
 20 22  1  0
 22 23  1  0
 23  6  1  0
 14  7  1  0
 23 17  2  0
  1 24  1  0
  1 25  1  0
  2 26  1  0
  4 27  1  0
  4 28  1  0
  4 29  1  0
  5 30  1  0
  5 31  1  0
  5 32  1  0
 11 33  1  0
 11 34  1  0
 12 35  1  0
 12 36  1  0
 12 37  1  0
 13 38  1  0
 16 39  1  0
 18 40  1  0
 19 41  1  0
M  END

     RDKit          3D

 45 48  0  0  0  0  0  0  0  0999 V2000
   -1.8540   -1.4447    1.4792 C   0  0  0  0  0  0  0  0  0  0  0  0
   -2.2465   -0.6891    0.1867 C   0  0  0  0  0  0  0  0  0  0  0  0
   -3.3123   -1.5657   -0.5290 C   0  0  0  0  0  0  0  0  0  0  0  0
   -2.9610    0.6378    0.5623 C   0  0  0  0  0  0  0  0  0  0  0  0
   -1.9998    1.7215    1.0355 C   0  0  0  0  0  0  0  0  0  0  0  0
   -1.0284    2.0794   -0.0846 C   0  0  0  0  0  0  0  0  0  0  0  0
   -0.1342    0.8869   -0.5232 C   0  0  1  0  0  0  0  0  0  0  0  0
    0.5332    1.3027   -1.8759 C   0  0  0  0  0  0  0  0  0  0  0  0
    0.9878    0.6085    0.5557 C   0  0  2  0  0  0  0  0  0  0  0  0
    1.9729    1.8012    0.8147 C   0  0  0  0  0  0  0  0  0  0  0  0
    3.3851    1.3536    1.1059 C   0  0  0  0  0  0  0  0  0  0  0  0
    4.0484    1.9270    1.9561 O   0  0  0  0  0  0  0  0  0  0  0  0
    4.0077    0.2761    0.2619 C   0  0  0  0  0  0  0  0  0  0  0  0
    3.0023   -0.8050    0.0319 C   0  0  0  0  0  0  0  0  0  0  0  0
    1.6947   -0.6682    0.1934 C   0  0  0  0  0  0  0  0  0  0  0  0
    0.9705   -1.9316   -0.1422 C   0  0  1  0  0  0  0  0  0  0  0  0
   -0.1579   -1.6622   -1.1463 C   0  0  0  0  0  0  0  0  0  0  0  0
   -1.0307   -0.4071   -0.8023 C   0  0  1  0  0  0  0  0  0  0  0  0
    1.9957   -2.7571   -0.6955 O   0  0  0  0  0  0  0  0  0  0  0  0
    3.2117   -2.1105   -0.5477 C   0  0  0  0  0  0  0  0  0  0  0  0
    4.3188   -2.5918   -0.9041 O   0  0  0  0  0  0  0  0  0  0  0  0
   -1.0419   -0.9514    2.0359 H   0  0  0  0  0  0  0  0  0  0  0  0
   -2.7233   -1.5124    2.1689 H   0  0  0  0  0  0  0  0  0  0  0  0
   -1.5594   -2.4902    1.2551 H   0  0  0  0  0  0  0  0  0  0  0  0
   -2.9332   -2.5826   -0.7546 H   0  0  0  0  0  0  0  0  0  0  0  0
   -4.2125   -1.6895    0.1121 H   0  0  0  0  0  0  0  0  0  0  0  0
   -3.6428   -1.1011   -1.4827 H   0  0  0  0  0  0  0  0  0  0  0  0
   -3.5175    1.0320   -0.3184 H   0  0  0  0  0  0  0  0  0  0  0  0
   -3.7197    0.4630    1.3575 H   0  0  0  0  0  0  0  0  0  0  0  0
   -2.5879    2.6279    1.2967 H   0  0  0  0  0  0  0  0  0  0  0  0
   -1.4652    1.4070    1.9544 H   0  0  0  0  0  0  0  0  0  0  0  0
   -0.4070    2.9395    0.2440 H   0  0  0  0  0  0  0  0  0  0  0  0
   -1.6238    2.4423   -0.9535 H   0  0  0  0  0  0  0  0  0  0  0  0
    0.9107    2.3451   -1.8577 H   0  0  0  0  0  0  0  0  0  0  0  0
   -0.1952    1.2758   -2.7140 H   0  0  0  0  0  0  0  0  0  0  0  0
    1.3789    0.6347   -2.1415 H   0  0  0  0  0  0  0  0  0  0  0  0
    0.5168    0.4118    1.5330 H   0  0  0  0  0  0  0  0  0  0  0  0
    1.5940    2.4011    1.6719 H   0  0  0  0  0  0  0  0  0  0  0  0
    2.0374    2.4952   -0.0410 H   0  0  0  0  0  0  0  0  0  0  0  0
    4.8979   -0.1495    0.7733 H   0  0  0  0  0  0  0  0  0  0  0  0
    4.3171    0.7060   -0.7144 H   0  0  0  0  0  0  0  0  0  0  0  0
    0.6010   -2.4013    0.7888 H   0  0  0  0  0  0  0  0  0  0  0  0
    0.2989   -1.5097   -2.1487 H   0  0  0  0  0  0  0  0  0  0  0  0
   -0.7760   -2.5759   -1.2379 H   0  0  0  0  0  0  0  0  0  0  0  0
   -1.5513   -0.1795   -1.7598 H   0  0  0  0  0  0  0  0  0  0  0  0
  1  2  1  0
  2  3  1  0
  2  4  1  0
  4  5  1  0
  5  6  1  0
  6  7  1  0
  7  8  1  6
  7  9  1  0
  9 10  1  0
 10 11  1  0
 11 12  2  0
 11 13  1  0
 13 14  1  0
 14 15  2  0
 15 16  1  0
 16 17  1  0
 17 18  1  0
 16 19  1  0
 19 20  1  0
 20 21  2  0
 18  2  1  0
 18  7  1  0
 15  9  1  0
 20 14  1  0
  1 22  1  0
  1 23  1  0
  1 24  1  0
  3 25  1  0
  3 26  1  0
  3 27  1  0
  4 28  1  0
  4 29  1  0
  5 30  1  0
  5 31  1  0
  6 32  1  0
  6 33  1  0
  8 34  1  0
  8 35  1  0
  8 36  1  0
  9 37  1  1
 10 38  1  0
 10 39  1  0
 13 40  1  0
 13 41  1  0
 16 42  1  1
 17 43  1  0
 17 44  1  0
 18 45  1  6
M  END

     RDKit          3D

 51 54  0  0  0  0  0  0  0  0999 V2000
    5.3133    0.2855   -0.1161 C   0  0  0  0  0  0  0  0  0  0  0  0
    4.0049    0.4921    0.0041 C   0  0  0  0  0  0  0  0  0  0  0  0
    3.0544    0.6415   -1.0854 C   0  0  0  0  0  0  0  0  0  0  0  0
    3.3438    0.5516   -2.3092 O   0  0  0  0  0  0  0  0  0  0  0  0
    1.6593    0.7506   -0.5195 C   0  0  1  0  0  0  0  0  0  0  0  0
    0.7735    1.7096   -1.3609 C   0  0  0  0  0  0  0  0  0  0  0  0
   -0.6569    1.1994   -1.5729 C   0  0  0  0  0  0  0  0  0  0  0  0
   -1.2423    0.6038   -0.2648 C   0  0  2  0  0  0  0  0  0  0  0  0
   -0.4881   -0.7564    0.0842 C   0  0  1  0  0  0  0  0  0  0  0  0
   -0.6299   -1.0493    1.6121 C   0  0  0  0  0  0  0  0  0  0  0  0
   -1.1343   -1.9502   -0.6952 C   0  0  0  0  0  0  0  0  0  0  0  0
   -2.6571   -2.0243   -0.5953 C   0  0  0  0  0  0  0  0  0  0  0  0
   -3.2898   -0.7262   -1.0909 C   0  0  0  0  0  0  0  0  0  0  0  0
   -2.8334    0.5062   -0.2672 C   0  0  2  0  0  0  0  0  0  0  0  0
   -3.5039    1.7595   -0.8835 C   0  0  0  0  0  0  0  0  0  0  0  0
   -3.3745    0.4492    1.1569 C   0  0  0  0  0  0  0  0  0  0  0  0
   -4.3541   -0.2916    1.4505 O   0  0  0  0  0  0  0  0  0  0  0  0
   -2.8545    1.2967    2.1336 O   0  0  0  0  0  0  0  0  0  0  0  0
    1.0536   -0.6921   -0.3682 C   0  0  2  0  0  0  0  0  0  0  0  0
    2.0347   -1.6392    0.4136 C   0  0  0  0  0  0  0  0  0  0  0  0
    2.7575   -0.9563    1.6110 C   0  0  0  0  0  0  0  0  0  0  0  0
    3.2233    0.4842    1.2799 C   0  0  2  0  0  0  0  0  0  0  0  0
    1.9929    1.3063    0.8819 C   0  0  0  0  0  0  0  0  0  0  0  0
    5.7828    0.2620   -1.0922 H   0  0  0  0  0  0  0  0  0  0  0  0
    5.9241    0.1375    0.7635 H   0  0  0  0  0  0  0  0  0  0  0  0
    0.7245    2.7090   -0.8772 H   0  0  0  0  0  0  0  0  0  0  0  0
    1.2105    1.8858   -2.3665 H   0  0  0  0  0  0  0  0  0  0  0  0
   -1.2258    2.0750   -1.9356 H   0  0  0  0  0  0  0  0  0  0  0  0
   -0.6751    0.4409   -2.3838 H   0  0  0  0  0  0  0  0  0  0  0  0
   -0.9805    1.3465    0.5203 H   0  0  0  0  0  0  0  0  0  0  0  0
   -0.1218   -1.9811    1.9195 H   0  0  0  0  0  0  0  0  0  0  0  0
   -1.6756   -1.2157    1.9156 H   0  0  0  0  0  0  0  0  0  0  0  0
   -0.2538   -0.2219    2.2367 H   0  0  0  0  0  0  0  0  0  0  0  0
   -0.8917   -1.8866   -1.7794 H   0  0  0  0  0  0  0  0  0  0  0  0
   -0.7102   -2.9131   -0.3352 H   0  0  0  0  0  0  0  0  0  0  0  0
   -2.9815   -2.2622    0.4372 H   0  0  0  0  0  0  0  0  0  0  0  0
   -3.0151   -2.8602   -1.2347 H   0  0  0  0  0  0  0  0  0  0  0  0
   -3.0176   -0.5883   -2.1603 H   0  0  0  0  0  0  0  0  0  0  0  0
   -4.3969   -0.8292   -1.0595 H   0  0  0  0  0  0  0  0  0  0  0  0
   -3.0757    2.6885   -0.4471 H   0  0  0  0  0  0  0  0  0  0  0  0
   -4.6001    1.7589   -0.6852 H   0  0  0  0  0  0  0  0  0  0  0  0
   -3.3959    1.7873   -1.9887 H   0  0  0  0  0  0  0  0  0  0  0  0
   -3.2248    1.2932    3.0751 H   0  0  0  0  0  0  0  0  0  0  0  0
    1.0917   -1.0789   -1.4132 H   0  0  0  0  0  0  0  0  0  0  0  0
    1.5507   -2.5843    0.7253 H   0  0  0  0  0  0  0  0  0  0  0  0
    2.8229   -1.9773   -0.2942 H   0  0  0  0  0  0  0  0  0  0  0  0
    2.0827   -0.9283    2.4921 H   0  0  0  0  0  0  0  0  0  0  0  0
    3.6379   -1.5702    1.9042 H   0  0  0  0  0  0  0  0  0  0  0  0
    3.7751    0.9476    2.1261 H   0  0  0  0  0  0  0  0  0  0  0  0
    1.1702    1.2303    1.6125 H   0  0  0  0  0  0  0  0  0  0  0  0
    2.2767    2.3836    0.8259 H   0  0  0  0  0  0  0  0  0  0  0  0
  1  2  2  3
  2  3  1  0
  3  4  2  0
  3  5  1  0
  5  6  1  6
  6  7  1  0
  7  8  1  0
  8  9  1  0
  9 10  1  1
  9 11  1  0
 11 12  1  0
 12 13  1  0
 13 14  1  0
 14 15  1  6
 14 16  1  0
 16 17  2  0
 16 18  1  0
  9 19  1  0
 19 20  1  0
 20 21  1  0
 21 22  1  0
 22 23  1  0
 22  2  1  0
 19  5  1  0
 23  5  1  0
 14  8  1  0
  1 24  1  0
  1 25  1  0
  6 26  1  0
  6 27  1  0
  7 28  1  0
  7 29  1  0
  8 30  1  1
 10 31  1  0
 10 32  1  0
 10 33  1  0
 11 34  1  0
 11 35  1  0
 12 36  1  0
 12 37  1  0
 13 38  1  0
 13 39  1  0
 15 40  1  0
 15 41  1  0
 15 42  1  0
 18 43  1  0
 19 44  1  6
 20 45  1  0
 20 46  1  0
 21 47  1  0
 21 48  1  0
 22 49  1  1
 23 50  1  0
 23 51  1  0
M  END

     RDKit          3D

 24 25  0  0  0  0  0  0  0  0999 V2000
    3.4573   -1.6186   -0.1422 C   0  0  0  0  0  0  0  0  0  0  0  0
    3.0618   -0.2514   -0.1000 O   0  0  0  0  0  0  0  0  0  0  0  0
    1.7346    0.1886    0.0239 C   0  0  0  0  0  0  0  0  0  0  0  0
    0.6527   -0.7086    0.1251 C   0  0  0  0  0  0  0  0  0  0  0  0
   -0.6605   -0.2281    0.2343 C   0  0  0  0  0  0  0  0  0  0  0  0
   -0.8938    1.1586    0.2700 C   0  0  0  0  0  0  0  0  0  0  0  0
    0.1781    2.0495    0.1808 C   0  0  0  0  0  0  0  0  0  0  0  0
    1.4885    1.5693    0.0527 C   0  0  0  0  0  0  0  0  0  0  0  0
    2.5558    2.4606   -0.0442 O   0  0  0  0  0  0  0  0  0  0  0  0
   -2.1968    1.6526    0.3913 O   0  0  0  0  0  0  0  0  0  0  0  0
   -3.3075    0.8114    0.2883 C   0  0  0  0  0  0  0  0  0  0  0  0
   -4.4628    1.2766    0.4714 O   0  0  0  0  0  0  0  0  0  0  0  0
   -3.1261   -0.6215   -0.1200 C   0  0  0  0  0  0  0  0  0  0  0  0
   -1.8119   -1.1818    0.4396 C   0  0  0  0  0  0  0  0  0  0  0  0
    2.9902   -2.1246   -1.0135 H   0  0  0  0  0  0  0  0  0  0  0  0
    4.5600   -1.6738   -0.2487 H   0  0  0  0  0  0  0  0  0  0  0  0
    3.1653   -2.1298    0.7994 H   0  0  0  0  0  0  0  0  0  0  0  0
    0.8228   -1.7769    0.1270 H   0  0  0  0  0  0  0  0  0  0  0  0
   -0.0087    3.1157    0.2062 H   0  0  0  0  0  0  0  0  0  0  0  0
    2.4128    3.4637   -0.0259 H   0  0  0  0  0  0  0  0  0  0  0  0
   -3.9764   -1.2359    0.2476 H   0  0  0  0  0  0  0  0  0  0  0  0
   -3.1081   -0.6741   -1.2298 H   0  0  0  0  0  0  0  0  0  0  0  0
   -1.9265   -1.3654    1.5298 H   0  0  0  0  0  0  0  0  0  0  0  0
   -1.6007   -2.1561   -0.0526 H   0  0  0  0  0  0  0  0  0  0  0  0
  1  2  1  0
  2  3  1  0
  3  4  2  0
  4  5  1  0
  5  6  2  0
  6  7  1  0
  7  8  2  0
  8  9  1  0
  6 10  1  0
 10 11  1  0
 11 12  2  0
 11 13  1  0
 13 14  1  0
  8  3  1  0
 14  5  1  0
  1 15  1  0
  1 16  1  0
  1 17  1  0
  4 18  1  0
  7 19  1  0
  9 20  1  0
 13 21  1  0
 13 22  1  0
 14 23  1  0
 14 24  1  0
M  END

     RDKit          3D

 41 42  0  0  0  0  0  0  0  0999 V2000
   -6.6768    2.0809    1.1027 C   0  0  0  0  0  0  0  0  0  0  0  0
   -6.8706    0.7140    0.7538 O   0  0  0  0  0  0  0  0  0  0  0  0
   -5.8582   -0.1374    0.2849 C   0  0  0  0  0  0  0  0  0  0  0  0
   -4.5308    0.3007    0.1085 C   0  0  0  0  0  0  0  0  0  0  0  0
   -3.5376   -0.5798   -0.3517 C   0  0  0  0  0  0  0  0  0  0  0  0
   -2.1577   -0.0614   -0.5272 C   0  0  0  0  0  0  0  0  0  0  0  0
   -1.0681   -0.8416   -0.5687 C   0  0  0  0  0  0  0  0  0  0  0  0
    0.2878   -0.2881   -0.7166 C   0  0  0  0  0  0  0  0  0  0  0  0
    0.4648    0.9552   -0.8556 O   0  0  0  0  0  0  0  0  0  0  0  0
    1.3800   -1.1644   -0.7023 O   0  0  0  0  0  0  0  0  0  0  0  0
    2.7348   -0.7251   -0.7722 C   0  0  0  0  0  0  0  0  0  0  0  0
    3.1804   -0.1352    0.5705 C   0  0  0  0  0  0  0  0  0  0  0  0
    4.6062    0.3385    0.4903 C   0  0  0  0  0  0  0  0  0  0  0  0
    4.8991    1.6039   -0.0443 C   0  0  0  0  0  0  0  0  0  0  0  0
    6.2263    2.0310   -0.1554 C   0  0  0  0  0  0  0  0  0  0  0  0
    7.2723    1.1982    0.2598 C   0  0  0  0  0  0  0  0  0  0  0  0
    8.5899    1.6358    0.1406 O   0  0  0  0  0  0  0  0  0  0  0  0
    6.9854   -0.0676    0.7889 C   0  0  0  0  0  0  0  0  0  0  0  0
    5.6594   -0.4996    0.8958 C   0  0  0  0  0  0  0  0  0  0  0  0
   -3.8934   -1.9075   -0.6576 C   0  0  0  0  0  0  0  0  0  0  0  0
   -5.2087   -2.3439   -0.4857 C   0  0  0  0  0  0  0  0  0  0  0  0
   -6.1902   -1.4653   -0.0119 C   0  0  0  0  0  0  0  0  0  0  0  0
   -7.5017   -1.9049    0.1682 O   0  0  0  0  0  0  0  0  0  0  0  0
   -7.6418    2.5059    1.4473 H   0  0  0  0  0  0  0  0  0  0  0  0
   -5.9395    2.1633    1.9287 H   0  0  0  0  0  0  0  0  0  0  0  0
   -6.3277    2.6579    0.2198 H   0  0  0  0  0  0  0  0  0  0  0  0
   -4.2603    1.3229    0.3408 H   0  0  0  0  0  0  0  0  0  0  0  0
   -2.0338    1.0149   -0.5757 H   0  0  0  0  0  0  0  0  0  0  0  0
   -1.1515   -1.9137   -0.4575 H   0  0  0  0  0  0  0  0  0  0  0  0
    2.8500    0.0206   -1.5908 H   0  0  0  0  0  0  0  0  0  0  0  0
    3.3726   -1.6008   -1.0158 H   0  0  0  0  0  0  0  0  0  0  0  0
    2.5229    0.7183    0.8480 H   0  0  0  0  0  0  0  0  0  0  0  0
    3.0747   -0.9063    1.3670 H   0  0  0  0  0  0  0  0  0  0  0  0
    4.1005    2.2580   -0.3736 H   0  0  0  0  0  0  0  0  0  0  0  0
    6.4421    3.0086   -0.5651 H   0  0  0  0  0  0  0  0  0  0  0  0
    9.3680    1.0585    0.4412 H   0  0  0  0  0  0  0  0  0  0  0  0
    7.7885   -0.7206    1.1112 H   0  0  0  0  0  0  0  0  0  0  0  0
    5.4539   -1.4869    1.2901 H   0  0  0  0  0  0  0  0  0  0  0  0
   -3.1710   -2.6081   -1.0519 H   0  0  0  0  0  0  0  0  0  0  0  0
   -5.4675   -3.3675   -0.7255 H   0  0  0  0  0  0  0  0  0  0  0  0
   -7.7726   -2.8614   -0.0291 H   0  0  0  0  0  0  0  0  0  0  0  0
  1  2  1  0
  2  3  1  0
  3  4  2  0
  4  5  1  0
  5  6  1  0
  6  7  2  0
  7  8  1  0
  8  9  2  0
  8 10  1  0
 10 11  1  0
 11 12  1  0
 12 13  1  0
 13 14  2  0
 14 15  1  0
 15 16  2  0
 16 17  1  0
 16 18  1  0
 18 19  2  0
  5 20  2  0
 20 21  1  0
 21 22  2  0
 22 23  1  0
 22  3  1  0
 19 13  1  0
  1 24  1  0
  1 25  1  0
  1 26  1  0
  4 27  1  0
  6 28  1  0
  7 29  1  0
 11 30  1  0
 11 31  1  0
 12 32  1  0
 12 33  1  0
 14 34  1  0
 15 35  1  0
 17 36  1  0
 18 37  1  0
 19 38  1  0
 20 39  1  0
 21 40  1  0
 23 41  1  0
M  END

     RDKit          3D

 39 40  0  0  0  0  0  0  0  0999 V2000
   -2.1530    0.4372   -2.2224 C   0  0  0  0  0  0  0  0  0  0  0  0
   -2.4668    1.1232   -1.1095 C   0  0  0  0  0  0  0  0  0  0  0  0
   -3.8664    1.6702   -0.9433 C   0  0  0  0  0  0  0  0  0  0  0  0
   -4.7532    0.6354   -0.5109 O   0  0  0  0  0  0  0  0  0  0  0  0
   -4.8442    0.2120    0.8236 C   0  0  0  0  0  0  0  0  0  0  0  0
   -5.7104   -0.9511    1.1701 C   0  0  0  0  0  0  0  0  0  0  0  0
   -4.1840    0.7851    1.7336 O   0  0  0  0  0  0  0  0  0  0  0  0
   -1.4483    1.2943    0.0010 C   0  0  1  0  0  0  0  0  0  0  0  0
   -1.1119   -0.0538    0.7051 C   0  0  0  0  0  0  0  0  0  0  0  0
    0.3599   -0.1540    0.5228 C   0  0  0  0  0  0  0  0  0  0  0  0
    1.2222   -1.1550    0.9612 C   0  0  0  0  0  0  0  0  0  0  0  0
    2.6020   -1.0513    0.6718 C   0  0  0  0  0  0  0  0  0  0  0  0
    3.5026   -2.1400    1.1345 C   0  0  0  0  0  0  0  0  0  0  0  0
    4.7564   -2.5129    0.4015 C   0  0  0  0  0  0  0  0  0  0  0  0
    3.2065   -2.7839    2.1773 O   0  0  0  0  0  0  0  0  0  0  0  0
    3.0840    0.0888   -0.0401 C   0  0  0  0  0  0  0  0  0  0  0  0
    4.4630    0.2306   -0.2679 O   0  0  0  0  0  0  0  0  0  0  0  0
    5.0659    1.3408   -0.9248 C   0  0  0  0  0  0  0  0  0  0  0  0
    2.1659    1.0737   -0.4818 C   0  0  0  0  0  0  0  0  0  0  0  0
    0.8181    0.9181   -0.1788 C   0  0  0  0  0  0  0  0  0  0  0  0
   -0.2060    1.7777   -0.5171 O   0  0  0  0  0  0  0  0  0  0  0  0
   -2.8867    0.2877   -3.0094 H   0  0  0  0  0  0  0  0  0  0  0  0
   -1.1607    0.0143   -2.3590 H   0  0  0  0  0  0  0  0  0  0  0  0
   -4.2330    2.0725   -1.9144 H   0  0  0  0  0  0  0  0  0  0  0  0
   -3.8790    2.5138   -0.2195 H   0  0  0  0  0  0  0  0  0  0  0  0
   -5.0765   -1.8485    1.3397 H   0  0  0  0  0  0  0  0  0  0  0  0
   -6.2864   -0.7337    2.0950 H   0  0  0  0  0  0  0  0  0  0  0  0
   -6.4254   -1.1569    0.3439 H   0  0  0  0  0  0  0  0  0  0  0  0
   -1.8196    2.0187    0.7583 H   0  0  0  0  0  0  0  0  0  0  0  0
   -1.3569   -0.0070    1.7874 H   0  0  0  0  0  0  0  0  0  0  0  0
   -1.6171   -0.9275    0.2376 H   0  0  0  0  0  0  0  0  0  0  0  0
    0.8254   -2.0063    1.5001 H   0  0  0  0  0  0  0  0  0  0  0  0
    4.9957   -3.5826    0.5771 H   0  0  0  0  0  0  0  0  0  0  0  0
    4.6284   -2.3644   -0.6920 H   0  0  0  0  0  0  0  0  0  0  0  0
    5.6018   -1.8980    0.7719 H   0  0  0  0  0  0  0  0  0  0  0  0
    4.6956    1.4128   -1.9682 H   0  0  0  0  0  0  0  0  0  0  0  0
    4.8462    2.2804   -0.3743 H   0  0  0  0  0  0  0  0  0  0  0  0
    6.1629    1.1908   -0.9478 H   0  0  0  0  0  0  0  0  0  0  0  0
    2.4832    1.9488   -1.0325 H   0  0  0  0  0  0  0  0  0  0  0  0
  1  2  2  3
  2  3  1  0
  3  4  1  0
  4  5  1  0
  5  6  1  0
  5  7  2  0
  2  8  1  0
  8  9  1  0
  9 10  1  0
 10 11  2  0
 11 12  1  0
 12 13  1  0
 13 14  1  0
 13 15  2  0
 12 16  2  0
 16 17  1  0
 17 18  1  0
 16 19  1  0
 19 20  2  0
 20 21  1  0
 21  8  1  0
 20 10  1  0
  1 22  1  0
  1 23  1  0
  3 24  1  0
  3 25  1  0
  6 26  1  0
  6 27  1  0
  6 28  1  0
  8 29  1  1
  9 30  1  0
  9 31  1  0
 11 32  1  0
 14 33  1  0
 14 34  1  0
 14 35  1  0
 18 36  1  0
 18 37  1  0
 18 38  1  0
 19 39  1  0
M  END

     RDKit          3D

 57 59  0  0  0  0  0  0  0  0999 V2000
   -6.9287    1.3109   -0.3547 C   0  0  0  0  0  0  0  0  0  0  0  0
   -5.7288    0.7241   -1.1185 C   0  0  2  0  0  0  0  0  0  0  0  0
   -6.1504   -0.3156   -1.9711 O   0  0  0  0  0  0  0  0  0  0  0  0
   -4.5486    0.2795   -0.2007 C   0  0  2  0  0  0  0  0  0  0  0  0
   -4.9224   -0.9366    0.6644 C   0  0  0  0  0  0  0  0  0  0  0  0
   -4.2313    1.3680    0.6441 O   0  0  0  0  0  0  0  0  0  0  0  0
   -3.3401   -0.0715   -1.0570 C   0  0  0  0  0  0  0  0  0  0  0  0
   -3.4726   -0.8711   -2.0233 O   0  0  0  0  0  0  0  0  0  0  0  0
   -2.0832    0.4599   -0.7374 O   0  0  0  0  0  0  0  0  0  0  0  0
   -0.8870    0.1969   -1.4682 C   0  0  0  0  0  0  0  0  0  0  0  0
   -0.0021   -0.8710   -0.7908 C   0  0  2  0  0  0  0  0  0  0  0  0
   -0.5775   -2.2672   -0.8714 C   0  0  0  0  0  0  0  0  0  0  0  0
   -1.2860   -2.4645    0.4511 C   0  0  0  0  0  0  0  0  0  0  0  0
   -0.6871   -1.5621    1.4504 N   0  0  0  0  0  0  0  0  0  0  0  0
    0.1899   -2.2898    2.3814 C   0  0  0  0  0  0  0  0  0  0  0  0
    1.6082   -2.1626    1.8551 C   0  0  0  0  0  0  0  0  0  0  0  0
    1.6101   -0.7861    1.2511 C   0  0  1  0  0  0  0  0  0  0  0  0
    2.6111   -0.6521    0.2412 O   0  0  0  0  0  0  0  0  0  0  0  0
    3.1461    0.5885   -0.1481 C   0  0  0  0  0  0  0  0  0  0  0  0
    2.7924    1.6552    0.4310 O   0  0  0  0  0  0  0  0  0  0  0  0
    4.0600    0.6492   -1.3265 C   0  0  0  0  0  0  0  0  0  0  0  0
    5.2626    1.4963   -1.0389 C   0  0  0  0  0  0  0  0  0  0  0  0
    5.3007    2.8452   -1.4350 C   0  0  0  0  0  0  0  0  0  0  0  0
    6.4228    3.6283   -1.1583 C   0  0  0  0  0  0  0  0  0  0  0  0
    7.5177    3.0715   -0.4866 C   0  0  0  0  0  0  0  0  0  0  0  0
    7.4825    1.7347   -0.0845 C   0  0  0  0  0  0  0  0  0  0  0  0
    6.3575    0.9512   -0.3534 C   0  0  0  0  0  0  0  0  0  0  0  0
    0.1734   -0.6077    0.7254 C   0  0  1  0  0  0  0  0  0  0  0  0
   -7.6888    1.6628   -1.0908 H   0  0  0  0  0  0  0  0  0  0  0  0
   -6.6167    2.1826    0.2692 H   0  0  0  0  0  0  0  0  0  0  0  0
   -7.4116    0.5552    0.3051 H   0  0  0  0  0  0  0  0  0  0  0  0
   -5.3466    1.5391   -1.7711 H   0  0  0  0  0  0  0  0  0  0  0  0
   -6.6780   -0.9585   -1.4353 H   0  0  0  0  0  0  0  0  0  0  0  0
   -4.0910   -1.1877    1.3606 H   0  0  0  0  0  0  0  0  0  0  0  0
   -5.1295   -1.8300    0.0312 H   0  0  0  0  0  0  0  0  0  0  0  0
   -5.8077   -0.7155    1.2952 H   0  0  0  0  0  0  0  0  0  0  0  0
   -3.5075    1.0935    1.2618 H   0  0  0  0  0  0  0  0  0  0  0  0
   -1.1059   -0.0721   -2.5243 H   0  0  0  0  0  0  0  0  0  0  0  0
   -0.3053    1.1360   -1.4932 H   0  0  0  0  0  0  0  0  0  0  0  0
    0.9487   -0.8742   -1.3524 H   0  0  0  0  0  0  0  0  0  0  0  0
    0.2484   -3.0145   -0.9393 H   0  0  0  0  0  0  0  0  0  0  0  0
   -1.2694   -2.4289   -1.7334 H   0  0  0  0  0  0  0  0  0  0  0  0
   -1.2895   -3.5426    0.7493 H   0  0  0  0  0  0  0  0  0  0  0  0
   -2.3519   -2.1986    0.3254 H   0  0  0  0  0  0  0  0  0  0  0  0
    0.1312   -1.7929    3.3715 H   0  0  0  0  0  0  0  0  0  0  0  0
   -0.0855   -3.3552    2.5376 H   0  0  0  0  0  0  0  0  0  0  0  0
    1.7912   -2.9308    1.0767 H   0  0  0  0  0  0  0  0  0  0  0  0
    2.3690   -2.2596    2.6582 H   0  0  0  0  0  0  0  0  0  0  0  0
    1.7891   -0.0542    2.0748 H   0  0  0  0  0  0  0  0  0  0  0  0
    4.3920   -0.3821   -1.5942 H   0  0  0  0  0  0  0  0  0  0  0  0
    3.4939    1.0505   -2.1973 H   0  0  0  0  0  0  0  0  0  0  0  0
    4.4668    3.2886   -1.9651 H   0  0  0  0  0  0  0  0  0  0  0  0
    6.4632    4.6687   -1.4726 H   0  0  0  0  0  0  0  0  0  0  0  0
    8.3876    3.6768   -0.2632 H   0  0  0  0  0  0  0  0  0  0  0  0
    8.3268    1.3033    0.4371 H   0  0  0  0  0  0  0  0  0  0  0  0
    6.3413   -0.0842   -0.0456 H   0  0  0  0  0  0  0  0  0  0  0  0
   -0.1539    0.4230    0.9731 H   0  0  0  0  0  0  0  0  0  0  0  0
  1  2  1  0
  2  3  1  0
  2  4  1  0
  4  5  1  0
  4  6  1  1
  4  7  1  0
  7  8  2  0
  7  9  1  0
  9 10  1  0
 10 11  1  0
 11 12  1  0
 12 13  1  0
 13 14  1  0
 14 15  1  0
 15 16  1  0
 16 17  1  0
 17 18  1  0
 18 19  1  0
 19 20  2  0
 19 21  1  0
 21 22  1  0
 22 23  2  0
 23 24  1  0
 24 25  2  0
 25 26  1  0
 26 27  2  0
 17 28  1  0
 28 11  1  0
 28 14  1  0
 27 22  1  0
  1 29  1  0
  1 30  1  0
  1 31  1  0
  2 32  1  6
  3 33  1  0
  5 34  1  0
  5 35  1  0
  5 36  1  0
  6 37  1  0
 10 38  1  0
 10 39  1  0
 11 40  1  6
 12 41  1  0
 12 42  1  0
 13 43  1  0
 13 44  1  0
 15 45  1  0
 15 46  1  0
 16 47  1  0
 16 48  1  0
 17 49  1  1
 21 50  1  0
 21 51  1  0
 23 52  1  0
 24 53  1  0
 25 54  1  0
 26 55  1  0
 27 56  1  0
 28 57  1  6
M  END

     RDKit          3D

 34 35  0  0  0  0  0  0  0  0999 V2000
   -0.7963    3.9730    0.3606 C   0  0  0  0  0  0  0  0  0  0  0  0
   -0.7545    2.5556    0.4959 O   0  0  0  0  0  0  0  0  0  0  0  0
    0.3880    1.7622    0.2956 C   0  0  0  0  0  0  0  0  0  0  0  0
    1.6194    2.3407   -0.0710 C   0  0  0  0  0  0  0  0  0  0  0  0
    2.7426    1.5475   -0.2953 C   0  0  0  0  0  0  0  0  0  0  0  0
    2.6565    0.1601   -0.1662 C   0  0  0  0  0  0  0  0  0  0  0  0
    3.7635   -0.6587   -0.4112 C   0  0  0  0  0  0  0  0  0  0  0  0
    3.6361   -2.0401   -0.2854 C   0  0  0  0  0  0  0  0  0  0  0  0
    2.3988   -2.5726    0.0835 C   0  0  0  0  0  0  0  0  0  0  0  0
    2.2603   -3.8181    0.2014 O   0  0  0  0  0  0  0  0  0  0  0  0
    1.3632   -1.7704    0.3118 O   0  0  0  0  0  0  0  0  0  0  0  0
    1.4349   -0.4427    0.2069 C   0  0  0  0  0  0  0  0  0  0  0  0
    0.2959    0.3562    0.4618 C   0  0  0  0  0  0  0  0  0  0  0  0
   -1.0235   -0.3175    0.8247 C   0  0  1  0  0  0  0  0  0  0  0  0
   -1.7517    0.4753    1.7313 O   0  0  0  0  0  0  0  0  0  0  0  0
   -1.8473   -0.6178   -0.4523 C   0  0  2  0  0  0  0  0  0  0  0  0
   -2.2433    0.5601   -1.1125 O   0  0  0  0  0  0  0  0  0  0  0  0
   -3.0444   -1.4953   -0.1479 C   0  0  0  0  0  0  0  0  0  0  0  0
   -3.0126   -2.9716   -0.4246 C   0  0  0  0  0  0  0  0  0  0  0  0
   -4.0506   -1.0074    0.3454 O   0  0  0  0  0  0  0  0  0  0  0  0
   -0.0996    4.4469    1.0845 H   0  0  0  0  0  0  0  0  0  0  0  0
   -1.8255    4.3260    0.5758 H   0  0  0  0  0  0  0  0  0  0  0  0
   -0.5288    4.2651   -0.6772 H   0  0  0  0  0  0  0  0  0  0  0  0
    1.7183    3.4105   -0.1935 H   0  0  0  0  0  0  0  0  0  0  0  0
    3.6759    2.0185   -0.5808 H   0  0  0  0  0  0  0  0  0  0  0  0
    4.7170   -0.2333   -0.7001 H   0  0  0  0  0  0  0  0  0  0  0  0
    4.4847   -2.6863   -0.4715 H   0  0  0  0  0  0  0  0  0  0  0  0
   -0.7943   -1.2914    1.3204 H   0  0  0  0  0  0  0  0  0  0  0  0
   -2.3438   -0.1323    2.2472 H   0  0  0  0  0  0  0  0  0  0  0  0
   -1.1856   -1.1728   -1.1531 H   0  0  0  0  0  0  0  0  0  0  0  0
   -2.8278    1.0755   -0.4976 H   0  0  0  0  0  0  0  0  0  0  0  0
   -2.0168   -3.2949   -0.8009 H   0  0  0  0  0  0  0  0  0  0  0  0
   -3.7825   -3.2235   -1.1845 H   0  0  0  0  0  0  0  0  0  0  0  0
   -3.2265   -3.5262    0.5140 H   0  0  0  0  0  0  0  0  0  0  0  0
  1  2  1  0
  2  3  1  0
  3  4  2  0
  4  5  1  0
  5  6  2  0
  6  7  1  0
  7  8  2  0
  8  9  1  0
  9 10  2  0
  9 11  1  0
 11 12  1  0
 12 13  2  0
 13 14  1  0
 14 15  1  0
 14 16  1  0
 16 17  1  0
 16 18  1  0
 18 19  1  0
 18 20  2  0
 13  3  1  0
 12  6  1  0
  1 21  1  0
  1 22  1  0
  1 23  1  0
  4 24  1  0
  5 25  1  0
  7 26  1  0
  8 27  1  0
 14 28  1  1
 15 29  1  0
 16 30  1  6
 17 31  1  0
 19 32  1  0
 19 33  1  0
 19 34  1  0
M  END

     RDKit          3D

 33 34  0  0  0  0  0  0  0  0999 V2000
   -0.7919   -2.1062    0.6006 C   0  0  0  0  0  0  0  0  0  0  0  0
   -1.1245   -0.7957    1.1667 N   0  0  0  0  0  0  0  0  0  0  0  0
   -1.5326    0.1710    0.1196 C   0  0  2  0  0  0  0  0  0  0  0  0
   -0.4275    1.2217   -0.0895 C   0  0  0  0  0  0  0  0  0  0  0  0
    0.8134    0.6192   -0.6814 C   0  0  0  0  0  0  0  0  0  0  0  0
    1.0300    0.3286   -2.0255 C   0  0  0  0  0  0  0  0  0  0  0  0
    2.2360   -0.2607   -2.1918 N   0  0  0  0  0  0  0  0  0  0  0  0
    2.7789   -0.3514   -0.9645 C   0  0  0  0  0  0  0  0  0  0  0  0
    4.0140   -0.9016   -0.6243 C   0  0  0  0  0  0  0  0  0  0  0  0
    4.3794   -0.9119    0.7348 C   0  0  0  0  0  0  0  0  0  0  0  0
    3.5100   -0.3803    1.7130 C   0  0  0  0  0  0  0  0  0  0  0  0
    2.2686    0.1679    1.3410 C   0  0  0  0  0  0  0  0  0  0  0  0
    1.9378    0.1701   -0.0148 C   0  0  0  0  0  0  0  0  0  0  0  0
   -2.8079    0.8818    0.4989 C   0  0  0  0  0  0  0  0  0  0  0  0
   -2.9343    1.3826    1.6503 O   0  0  0  0  0  0  0  0  0  0  0  0
   -3.8125    1.0468   -0.4614 O   0  0  0  0  0  0  0  0  0  0  0  0
   -5.0564    1.6721   -0.1711 C   0  0  0  0  0  0  0  0  0  0  0  0
   -1.6697   -2.5448    0.0756 H   0  0  0  0  0  0  0  0  0  0  0  0
   -0.4948   -2.7926    1.4214 H   0  0  0  0  0  0  0  0  0  0  0  0
    0.0609   -2.0246   -0.1034 H   0  0  0  0  0  0  0  0  0  0  0  0
   -1.8968   -0.9583    1.8550 H   0  0  0  0  0  0  0  0  0  0  0  0
   -1.7223   -0.3386   -0.8551 H   0  0  0  0  0  0  0  0  0  0  0  0
   -0.7931    2.0107   -0.7837 H   0  0  0  0  0  0  0  0  0  0  0  0
   -0.1837    1.7181    0.8748 H   0  0  0  0  0  0  0  0  0  0  0  0
    0.3384    0.5292   -2.8346 H   0  0  0  0  0  0  0  0  0  0  0  0
    2.6520   -0.5852   -3.0926 H   0  0  0  0  0  0  0  0  0  0  0  0
    4.6695   -1.3139   -1.3800 H   0  0  0  0  0  0  0  0  0  0  0  0
    5.3305   -1.3381    1.0311 H   0  0  0  0  0  0  0  0  0  0  0  0
    3.7978   -0.3955    2.7561 H   0  0  0  0  0  0  0  0  0  0  0  0
    1.5942    0.5685    2.0862 H   0  0  0  0  0  0  0  0  0  0  0  0
   -4.8886    2.6673    0.3004 H   0  0  0  0  0  0  0  0  0  0  0  0
   -5.6218    1.8171   -1.1184 H   0  0  0  0  0  0  0  0  0  0  0  0
   -5.6527    1.0270    0.5118 H   0  0  0  0  0  0  0  0  0  0  0  0
  1  2  1  0
  2  3  1  0
  3  4  1  0
  4  5  1  0
  5  6  2  0
  6  7  1  0
  7  8  1  0
  8  9  2  0
  9 10  1  0
 10 11  2  0
 11 12  1  0
 12 13  2  0
  3 14  1  0
 14 15  2  0
 14 16  1  0
 16 17  1  0
 13  5  1  0
 13  8  1  0
  1 18  1  0
  1 19  1  0
  1 20  1  0
  2 21  1  0
  3 22  1  6
  4 23  1  0
  4 24  1  0
  6 25  1  0
  7 26  1  0
  9 27  1  0
 10 28  1  0
 11 29  1  0
 12 30  1  0
 17 31  1  0
 17 32  1  0
 17 33  1  0
M  END

     RDKit          3D

 35 37  0  0  0  0  0  0  0  0999 V2000
    4.1258   -2.8668    0.1708 C   0  0  0  0  0  0  0  0  0  0  0  0
    3.9282   -1.5191   -0.2476 O   0  0  0  0  0  0  0  0  0  0  0  0
    2.6949   -0.8470   -0.2181 C   0  0  0  0  0  0  0  0  0  0  0  0
    1.5029   -1.4908    0.1494 C   0  0  0  0  0  0  0  0  0  0  0  0
    0.2904   -0.7848    0.1962 C   0  0  0  0  0  0  0  0  0  0  0  0
    0.2656    0.5918   -0.1170 C   0  0  0  0  0  0  0  0  0  0  0  0
    1.4522    1.2179   -0.5812 C   0  0  0  0  0  0  0  0  0  0  0  0
    1.4423    2.5086   -1.1215 O   0  0  0  0  0  0  0  0  0  0  0  0
    2.6697    0.5055   -0.5745 C   0  0  0  0  0  0  0  0  0  0  0  0
    3.8754    1.1071   -0.9600 O   0  0  0  0  0  0  0  0  0  0  0  0
    4.3616    2.3237   -0.3956 C   0  0  0  0  0  0  0  0  0  0  0  0
   -1.0056    1.3404    0.0860 C   0  0  0  0  0  0  0  0  0  0  0  0
   -0.9833    2.5883    0.2643 O   0  0  0  0  0  0  0  0  0  0  0  0
   -2.2938    0.6034    0.1904 C   0  0  0  0  0  0  0  0  0  0  0  0
   -2.2660   -0.7881    0.4265 C   0  0  0  0  0  0  0  0  0  0  0  0
   -3.4715   -1.4979    0.5507 C   0  0  0  0  0  0  0  0  0  0  0  0
   -4.6939   -0.8410    0.4309 C   0  0  0  0  0  0  0  0  0  0  0  0
   -4.7354    0.5342    0.1857 C   0  0  0  0  0  0  0  0  0  0  0  0
   -5.9642    1.1818    0.0579 O   0  0  0  0  0  0  0  0  0  0  0  0
   -3.5387    1.2637    0.0645 C   0  0  0  0  0  0  0  0  0  0  0  0
   -3.5822    2.6358   -0.1940 O   0  0  0  0  0  0  0  0  0  0  0  0
   -0.9677   -1.4898    0.5436 C   0  0  0  0  0  0  0  0  0  0  0  0
   -0.9352   -2.6942    0.9202 O   0  0  0  0  0  0  0  0  0  0  0  0
    3.8389   -2.9788    1.2379 H   0  0  0  0  0  0  0  0  0  0  0  0
    5.1963   -3.1315    0.0591 H   0  0  0  0  0  0  0  0  0  0  0  0
    3.5274   -3.5577   -0.4585 H   0  0  0  0  0  0  0  0  0  0  0  0
    1.5168   -2.5426    0.4018 H   0  0  0  0  0  0  0  0  0  0  0  0
    0.6037    2.9872   -1.4303 H   0  0  0  0  0  0  0  0  0  0  0  0
    5.4001    2.4963   -0.7459 H   0  0  0  0  0  0  0  0  0  0  0  0
    3.7486    3.1919   -0.7127 H   0  0  0  0  0  0  0  0  0  0  0  0
    4.3714    2.2476    0.7133 H   0  0  0  0  0  0  0  0  0  0  0  0
   -3.4680   -2.5628    0.7383 H   0  0  0  0  0  0  0  0  0  0  0  0
   -5.6137   -1.4028    0.5256 H   0  0  0  0  0  0  0  0  0  0  0  0
   -6.8418    0.6813    0.1328 H   0  0  0  0  0  0  0  0  0  0  0  0
   -4.4510    3.1465   -0.2893 H   0  0  0  0  0  0  0  0  0  0  0  0
  1  2  1  0
  2  3  1  0
  3  4  2  0
  4  5  1  0
  5  6  2  0
  6  7  1  0
  7  8  1  0
  7  9  2  0
  9 10  1  0
 10 11  1  0
  6 12  1  0
 12 13  2  0
 12 14  1  0
 14 15  2  0
 15 16  1  0
 16 17  2  0
 17 18  1  0
 18 19  1  0
 18 20  2  0
 20 21  1  0
 15 22  1  0
 22 23  2  0
  9  3  1  0
 20 14  1  0
 22  5  1  0
  1 24  1  0
  1 25  1  0
  1 26  1  0
  4 27  1  0
  8 28  1  0
 11 29  1  0
 11 30  1  0
 11 31  1  0
 16 32  1  0
 17 33  1  0
 19 34  1  0
 21 35  1  0
M  END

     RDKit          3D

 40 42  0  0  0  0  0  0  0  0999 V2000
   -2.8535    3.4190    1.0849 C   0  0  0  0  0  0  0  0  0  0  0  0
   -3.5635    2.3548    0.4581 O   0  0  0  0  0  0  0  0  0  0  0  0
   -2.9960    1.1214    0.1002 C   0  0  0  0  0  0  0  0  0  0  0  0
   -1.6412    0.8283    0.3303 C   0  0  0  0  0  0  0  0  0  0  0  0
   -1.1029   -0.4150   -0.0405 C   0  0  0  0  0  0  0  0  0  0  0  0
    0.3647   -0.7059    0.1723 C   0  0  2  0  0  0  0  0  0  0  0  0
    0.7091   -0.8019    1.6659 C   0  0  0  0  0  0  0  0  0  0  0  0
    2.2008   -0.8456    1.8742 C   0  0  0  0  0  0  0  0  0  0  0  0
    2.6295   -1.2782    2.9789 O   0  0  0  0  0  0  0  0  0  0  0  0
    3.1209   -0.2352    0.8704 C   0  0  0  0  0  0  0  0  0  0  0  0
    4.5382   -0.1910    1.0046 C   0  0  0  0  0  0  0  0  0  0  0  0
    5.2411   -0.8983    1.9847 O   0  0  0  0  0  0  0  0  0  0  0  0
    5.2932    0.5745    0.1064 C   0  0  0  0  0  0  0  0  0  0  0  0
    4.6780    1.2527   -0.9491 C   0  0  0  0  0  0  0  0  0  0  0  0
    5.4513    2.0092   -1.8258 O   0  0  0  0  0  0  0  0  0  0  0  0
    3.2950    1.1579   -1.1250 C   0  0  0  0  0  0  0  0  0  0  0  0
    2.5237    0.4094   -0.2352 C   0  0  0  0  0  0  0  0  0  0  0  0
    1.1454    0.3116   -0.4506 O   0  0  0  0  0  0  0  0  0  0  0  0
   -1.9342   -1.3717   -0.6408 C   0  0  0  0  0  0  0  0  0  0  0  0
   -3.2908   -1.0883   -0.8883 C   0  0  0  0  0  0  0  0  0  0  0  0
   -4.1405   -2.0184   -1.5088 O   0  0  0  0  0  0  0  0  0  0  0  0
   -3.7330   -3.2982   -1.9823 C   0  0  0  0  0  0  0  0  0  0  0  0
   -3.8150    0.1625   -0.5112 C   0  0  0  0  0  0  0  0  0  0  0  0
   -5.1555    0.4724   -0.7420 O   0  0  0  0  0  0  0  0  0  0  0  0
   -3.5437    4.2725    1.2435 H   0  0  0  0  0  0  0  0  0  0  0  0
   -2.4651    3.0870    2.0693 H   0  0  0  0  0  0  0  0  0  0  0  0
   -2.0160    3.7550    0.4370 H   0  0  0  0  0  0  0  0  0  0  0  0
   -0.9953    1.5662    0.7851 H   0  0  0  0  0  0  0  0  0  0  0  0
    0.6341   -1.6778   -0.3016 H   0  0  0  0  0  0  0  0  0  0  0  0
    0.2454   -1.7178    2.0949 H   0  0  0  0  0  0  0  0  0  0  0  0
    0.3126    0.0778    2.2155 H   0  0  0  0  0  0  0  0  0  0  0  0
    4.8549   -1.6694    2.5086 H   0  0  0  0  0  0  0  0  0  0  0  0
    6.3712    0.6229    0.2199 H   0  0  0  0  0  0  0  0  0  0  0  0
    5.0344    2.5081   -2.6007 H   0  0  0  0  0  0  0  0  0  0  0  0
    2.8151    1.6625   -1.9562 H   0  0  0  0  0  0  0  0  0  0  0  0
   -1.5148   -2.3290   -0.9229 H   0  0  0  0  0  0  0  0  0  0  0  0
   -3.3802   -3.9255   -1.1346 H   0  0  0  0  0  0  0  0  0  0  0  0
   -4.5983   -3.7979   -2.4658 H   0  0  0  0  0  0  0  0  0  0  0  0
   -2.9259   -3.1848   -2.7356 H   0  0  0  0  0  0  0  0  0  0  0  0
   -5.7933   -0.1759   -1.1877 H   0  0  0  0  0  0  0  0  0  0  0  0
  1  2  1  0
  2  3  1  0
  3  4  2  0
  4  5  1  0
  5  6  1  0
  6  7  1  0
  7  8  1  0
  8  9  2  0
  8 10  1  0
 10 11  2  0
 11 12  1  0
 11 13  1  0
 13 14  2  0
 14 15  1  0
 14 16  1  0
 16 17  2  0
 17 18  1  0
  5 19  2  0
 19 20  1  0
 20 21  1  0
 21 22  1  0
 20 23  2  0
 23 24  1  0
 23  3  1  0
 18  6  1  0
 17 10  1  0
  1 25  1  0
  1 26  1  0
  1 27  1  0
  4 28  1  0
  6 29  1  6
  7 30  1  0
  7 31  1  0
 12 32  1  0
 13 33  1  0
 15 34  1  0
 16 35  1  0
 19 36  1  0
 22 37  1  0
 22 38  1  0
 22 39  1  0
 24 40  1  0
M  END

     RDKit          3D

 40 42  0  0  0  0  0  0  0  0999 V2000
   -5.8680    1.5523   -2.1503 C   0  0  0  0  0  0  0  0  0  0  0  0
   -4.4671    1.5800   -1.8956 O   0  0  0  0  0  0  0  0  0  0  0  0
   -3.7844    0.6348   -1.1153 C   0  0  0  0  0  0  0  0  0  0  0  0
   -4.4386   -0.4374   -0.4850 C   0  0  0  0  0  0  0  0  0  0  0  0
   -3.7254   -1.3649    0.2850 C   0  0  0  0  0  0  0  0  0  0  0  0
   -4.4670   -2.3530    0.9372 O   0  0  0  0  0  0  0  0  0  0  0  0
   -2.3122   -1.2530    0.3874 C   0  0  0  0  0  0  0  0  0  0  0  0
   -1.6772   -0.1413   -0.1987 C   0  0  0  0  0  0  0  0  0  0  0  0
   -2.4060    0.7787   -0.9550 C   0  0  0  0  0  0  0  0  0  0  0  0
   -0.3019    0.0497   -0.0410 O   0  0  0  0  0  0  0  0  0  0  0  0
    0.4487   -0.6062    0.9839 C   0  0  2  0  0  0  0  0  0  0  0  0
    1.9397   -0.3620    0.7722 C   0  0  0  0  0  0  0  0  0  0  0  0
    2.9133   -1.2381    1.2879 C   0  0  0  0  0  0  0  0  0  0  0  0
    4.2788   -0.9801    1.1318 C   0  0  0  0  0  0  0  0  0  0  0  0
    5.1786   -1.9119    1.6548 O   0  0  0  0  0  0  0  0  0  0  0  0
    4.6976    0.1959    0.4693 C   0  0  0  0  0  0  0  0  0  0  0  0
    6.0464    0.5044    0.2737 O   0  0  0  0  0  0  0  0  0  0  0  0
    3.7420    1.1015   -0.0113 C   0  0  0  0  0  0  0  0  0  0  0  0
    4.1951    2.2708   -0.6441 O   0  0  0  0  0  0  0  0  0  0  0  0
    3.3477    3.2835   -1.1771 C   0  0  0  0  0  0  0  0  0  0  0  0
    2.3721    0.8245    0.1517 C   0  0  0  0  0  0  0  0  0  0  0  0
    0.0634   -2.0991    1.0164 C   0  0  0  0  0  0  0  0  0  0  0  0
   -1.4301   -2.2863    0.9984 C   0  0  0  0  0  0  0  0  0  0  0  0
   -1.8906   -3.3856    1.4016 O   0  0  0  0  0  0  0  0  0  0  0  0
   -6.4313    1.6420   -1.1976 H   0  0  0  0  0  0  0  0  0  0  0  0
   -6.1352    2.4093   -2.8016 H   0  0  0  0  0  0  0  0  0  0  0  0
   -6.1432    0.6104   -2.6707 H   0  0  0  0  0  0  0  0  0  0  0  0
   -5.5109   -0.5524   -0.5696 H   0  0  0  0  0  0  0  0  0  0  0  0
   -4.1202   -2.9067    1.7062 H   0  0  0  0  0  0  0  0  0  0  0  0
   -1.8961    1.6145   -1.4183 H   0  0  0  0  0  0  0  0  0  0  0  0
    0.1697   -0.1543    1.9613 H   0  0  0  0  0  0  0  0  0  0  0  0
    2.6287   -2.1330    1.8215 H   0  0  0  0  0  0  0  0  0  0  0  0
    6.1830   -1.8192    1.6069 H   0  0  0  0  0  0  0  0  0  0  0  0
    6.8114   -0.0837    0.5702 H   0  0  0  0  0  0  0  0  0  0  0  0
    3.9747    4.0863   -1.6164 H   0  0  0  0  0  0  0  0  0  0  0  0
    2.7022    2.8602   -1.9751 H   0  0  0  0  0  0  0  0  0  0  0  0
    2.7229    3.7223   -0.3705 H   0  0  0  0  0  0  0  0  0  0  0  0
    1.6393    1.5369   -0.2005 H   0  0  0  0  0  0  0  0  0  0  0  0
    0.4947   -2.6187    0.1334 H   0  0  0  0  0  0  0  0  0  0  0  0
    0.4553   -2.5710    1.9424 H   0  0  0  0  0  0  0  0  0  0  0  0
  1  2  1  0
  2  3  1  0
  3  4  2  0
  4  5  1  0
  5  6  1  0
  5  7  2  0
  7  8  1  0
  8  9  2  0
  8 10  1  0
 10 11  1  0
 11 12  1  0
 12 13  2  0
 13 14  1  0
 14 15  1  0
 14 16  2  0
 16 17  1  0
 16 18  1  0
 18 19  1  0
 19 20  1  0
 18 21  2  0
 11 22  1  0
 22 23  1  0
 23 24  2  0
  9  3  1  0
 21 12  1  0
 23  7  1  0
  1 25  1  0
  1 26  1  0
  1 27  1  0
  4 28  1  0
  6 29  1  0
  9 30  1  0
 11 31  1  1
 13 32  1  0
 15 33  1  0
 17 34  1  0
 20 35  1  0
 20 36  1  0
 20 37  1  0
 21 38  1  0
 22 39  1  0
 22 40  1  0
M  END

     RDKit          3D

 41 43  0  0  0  0  0  0  0  0999 V2000
    4.0427   -2.9717    1.4815 C   0  0  0  0  0  0  0  0  0  0  0  0
    4.2429   -1.8058    0.6889 O   0  0  0  0  0  0  0  0  0  0  0  0
    3.2098   -0.9963    0.1926 C   0  0  0  0  0  0  0  0  0  0  0  0
    1.8587   -1.2625    0.4641 C   0  0  0  0  0  0  0  0  0  0  0  0
    0.8560   -0.4276   -0.0316 C   0  0  0  0  0  0  0  0  0  0  0  0
   -0.4088   -0.7161    0.2524 O   0  0  0  0  0  0  0  0  0  0  0  0
   -1.4374    0.0223   -0.1480 C   0  0  0  0  0  0  0  0  0  0  0  0
   -2.8018   -0.4293    0.2069 C   0  0  0  0  0  0  0  0  0  0  0  0
   -3.8467   -0.4041   -0.7351 C   0  0  0  0  0  0  0  0  0  0  0  0
   -5.1145   -0.8865   -0.3950 C   0  0  0  0  0  0  0  0  0  0  0  0
   -5.3555   -1.3907    0.8891 C   0  0  0  0  0  0  0  0  0  0  0  0
   -6.6163   -1.8642    1.2401 O   0  0  0  0  0  0  0  0  0  0  0  0
   -4.3199   -1.4223    1.8269 C   0  0  0  0  0  0  0  0  0  0  0  0
   -3.0457   -0.9561    1.4859 C   0  0  0  0  0  0  0  0  0  0  0  0
   -1.2066    1.2222   -0.8446 C   0  0  0  0  0  0  0  0  0  0  0  0
   -2.2965    2.0479   -1.1631 O   0  0  0  0  0  0  0  0  0  0  0  0
   -2.3130    3.4593   -0.9773 C   0  0  0  0  0  0  0  0  0  0  0  0
    0.1181    1.5625   -1.1834 C   0  0  0  0  0  0  0  0  0  0  0  0
    0.3362    2.6411   -1.7935 O   0  0  0  0  0  0  0  0  0  0  0  0
    1.1824    0.7011   -0.8210 C   0  0  0  0  0  0  0  0  0  0  0  0
    2.5483    0.9199   -1.1641 C   0  0  0  0  0  0  0  0  0  0  0  0
    2.9642    1.9088   -2.0609 O   0  0  0  0  0  0  0  0  0  0  0  0
    3.5464    0.0966   -0.6178 C   0  0  0  0  0  0  0  0  0  0  0  0
    4.8870    0.3473   -0.9245 O   0  0  0  0  0  0  0  0  0  0  0  0
    5.7588    0.9627    0.0183 C   0  0  0  0  0  0  0  0  0  0  0  0
    3.5325   -2.7032    2.4317 H   0  0  0  0  0  0  0  0  0  0  0  0
    3.4416   -3.7195    0.9206 H   0  0  0  0  0  0  0  0  0  0  0  0
    5.0306   -3.4201    1.7207 H   0  0  0  0  0  0  0  0  0  0  0  0
    1.5714   -2.1106    1.0730 H   0  0  0  0  0  0  0  0  0  0  0  0
   -3.6734   -0.0446   -1.7437 H   0  0  0  0  0  0  0  0  0  0  0  0
   -5.9066   -0.8657   -1.1290 H   0  0  0  0  0  0  0  0  0  0  0  0
   -7.3782   -1.8831    0.5688 H   0  0  0  0  0  0  0  0  0  0  0  0
   -4.4971   -1.8180    2.8172 H   0  0  0  0  0  0  0  0  0  0  0  0
   -2.2529   -0.9990    2.2220 H   0  0  0  0  0  0  0  0  0  0  0  0
   -1.6892    3.9751   -1.7383 H   0  0  0  0  0  0  0  0  0  0  0  0
   -1.9666    3.7121    0.0506 H   0  0  0  0  0  0  0  0  0  0  0  0
   -3.3594    3.8276   -1.0902 H   0  0  0  0  0  0  0  0  0  0  0  0
    2.3766    2.3062   -2.7745 H   0  0  0  0  0  0  0  0  0  0  0  0
    5.8101    0.3617    0.9506 H   0  0  0  0  0  0  0  0  0  0  0  0
    5.3971    1.9875    0.2545 H   0  0  0  0  0  0  0  0  0  0  0  0
    6.7747    1.0353   -0.4208 H   0  0  0  0  0  0  0  0  0  0  0  0
  1  2  1  0
  2  3  1  0
  3  4  2  0
  4  5  1  0
  5  6  1  0
  6  7  1  0
  7  8  1  0
  8  9  2  0
  9 10  1  0
 10 11  2  0
 11 12  1  0
 11 13  1  0
 13 14  2  0
  7 15  2  0
 15 16  1  0
 16 17  1  0
 15 18  1  0
 18 19  2  0
 18 20  1  0
 20 21  1  0
 21 22  1  0
 21 23  2  0
 23 24  1  0
 24 25  1  0
 23  3  1  0
 20  5  2  0
 14  8  1  0
  1 26  1  0
  1 27  1  0
  1 28  1  0
  4 29  1  0
  9 30  1  0
 10 31  1  0
 12 32  1  0
 13 33  1  0
 14 34  1  0
 17 35  1  0
 17 36  1  0
 17 37  1  0
 22 38  1  0
 25 39  1  0
 25 40  1  0
 25 41  1  0
M  END

     RDKit          3D

 45 49  0  0  0  0  0  0  0  0999 V2000
    2.2347    0.2316    2.5019 O   0  0  0  0  0  0  0  0  0  0  0  0
    1.1263    0.2542    1.9044 C   0  0  0  0  0  0  0  0  0  0  0  0
    0.0967    1.0878    2.2838 O   0  0  0  0  0  0  0  0  0  0  0  0
   -1.0443    0.8842    1.4730 C   0  0  0  0  0  0  0  0  0  0  0  0
   -0.7828   -0.4556    0.7529 C   0  0  1  0  0  0  0  0  0  0  0  0
   -1.4761   -0.5543   -0.6243 C   0  0  0  0  0  0  0  0  0  0  0  0
   -2.9771   -0.4990   -0.4928 C   0  0  0  0  0  0  0  0  0  0  0  0
   -3.6987   -1.6452   -0.0671 C   0  0  0  0  0  0  0  0  0  0  0  0
   -5.0949   -1.5917    0.0914 C   0  0  0  0  0  0  0  0  0  0  0  0
   -5.7342   -0.3866   -0.1845 C   0  0  0  0  0  0  0  0  0  0  0  0
   -5.0518    0.7137   -0.5907 C   0  0  0  0  0  0  0  0  0  0  0  0
   -3.6710    0.7042   -0.7565 C   0  0  0  0  0  0  0  0  0  0  0  0
   -5.9361    1.7567   -0.7915 O   0  0  0  0  0  0  0  0  0  0  0  0
   -7.2581    1.2793   -0.4982 C   0  0  0  0  0  0  0  0  0  0  0  0
   -7.0822   -0.0918   -0.1111 O   0  0  0  0  0  0  0  0  0  0  0  0
    0.7706   -0.6205    0.7508 C   0  0  2  0  0  0  0  0  0  0  0  0
    1.1344   -1.9490    1.0313 O   0  0  0  0  0  0  0  0  0  0  0  0
    1.4598   -0.1143   -0.5473 C   0  0  0  0  0  0  0  0  0  0  0  0
    2.9658   -0.1340   -0.4587 C   0  0  0  0  0  0  0  0  0  0  0  0
    3.6790   -1.3462   -0.6464 C   0  0  0  0  0  0  0  0  0  0  0  0
    5.0827   -1.3692   -0.5614 C   0  0  0  0  0  0  0  0  0  0  0  0
    5.7362   -0.1712   -0.2896 C   0  0  0  0  0  0  0  0  0  0  0  0
    5.0621    0.9917   -0.1099 C   0  0  0  0  0  0  0  0  0  0  0  0
    3.6746    1.0567   -0.1812 C   0  0  0  0  0  0  0  0  0  0  0  0
    5.9590    2.0117    0.1399 O   0  0  0  0  0  0  0  0  0  0  0  0
    7.2804    1.4548    0.1144 C   0  0  0  0  0  0  0  0  0  0  0  0
    7.0915    0.0592   -0.1579 O   0  0  0  0  0  0  0  0  0  0  0  0
   -1.1240    1.7206    0.7444 H   0  0  0  0  0  0  0  0  0  0  0  0
   -1.9629    0.8423    2.0974 H   0  0  0  0  0  0  0  0  0  0  0  0
   -1.1996   -1.2594    1.4029 H   0  0  0  0  0  0  0  0  0  0  0  0
   -1.1318    0.2618   -1.2941 H   0  0  0  0  0  0  0  0  0  0  0  0
   -1.1961   -1.5160   -1.1031 H   0  0  0  0  0  0  0  0  0  0  0  0
   -3.1758   -2.5684    0.1485 H   0  0  0  0  0  0  0  0  0  0  0  0
   -5.6550   -2.4590    0.4165 H   0  0  0  0  0  0  0  0  0  0  0  0
   -3.1525    1.5992   -1.0741 H   0  0  0  0  0  0  0  0  0  0  0  0
   -7.6984    1.8634    0.3402 H   0  0  0  0  0  0  0  0  0  0  0  0
   -7.8975    1.3405   -1.4063 H   0  0  0  0  0  0  0  0  0  0  0  0
    0.7788   -2.5104    0.2945 H   0  0  0  0  0  0  0  0  0  0  0  0
    1.1156    0.9174   -0.7779 H   0  0  0  0  0  0  0  0  0  0  0  0
    1.1557   -0.7512   -1.4050 H   0  0  0  0  0  0  0  0  0  0  0  0
    3.1483   -2.2656   -0.8596 H   0  0  0  0  0  0  0  0  0  0  0  0
    5.6364   -2.2870   -0.7085 H   0  0  0  0  0  0  0  0  0  0  0  0
    3.1625    1.9969   -0.0272 H   0  0  0  0  0  0  0  0  0  0  0  0
    7.8795    1.9276   -0.6902 H   0  0  0  0  0  0  0  0  0  0  0  0
    7.7701    1.5902    1.0999 H   0  0  0  0  0  0  0  0  0  0  0  0
  1  2  2  0
  2  3  1  0
  3  4  1  0
  4  5  1  0
  5  6  1  0
  6  7  1  0
  7  8  2  0
  8  9  1  0
  9 10  2  0
 10 11  1  0
 11 12  2  0
 11 13  1  0
 13 14  1  0
 14 15  1  0
  5 16  1  0
 16 17  1  1
 16 18  1  0
 18 19  1  0
 19 20  2  0
 20 21  1  0
 21 22  2  0
 22 23  1  0
 23 24  2  0
 23 25  1  0
 25 26  1  0
 26 27  1  0
 16  2  1  0
 24 19  1  0
 12  7  1  0
 27 22  1  0
 15 10  1  0
  4 28  1  0
  4 29  1  0
  5 30  1  1
  6 31  1  0
  6 32  1  0
  8 33  1  0
  9 34  1  0
 12 35  1  0
 14 36  1  0
 14 37  1  0
 17 38  1  0
 18 39  1  0
 18 40  1  0
 20 41  1  0
 21 42  1  0
 24 43  1  0
 26 44  1  0
 26 45  1  0
M  END

     RDKit          3D

 35 37  0  0  0  0  0  0  0  0999 V2000
    5.8295    0.3967    0.8515 C   0  0  0  0  0  0  0  0  0  0  0  0
    4.7615   -0.4732    1.2230 O   0  0  0  0  0  0  0  0  0  0  0  0
    3.5360   -0.4617    0.5523 C   0  0  0  0  0  0  0  0  0  0  0  0
    3.4442   -0.9216   -0.7674 C   0  0  0  0  0  0  0  0  0  0  0  0
    4.5806   -1.3934   -1.4234 O   0  0  0  0  0  0  0  0  0  0  0  0
    2.2050   -0.9403   -1.4106 C   0  0  0  0  0  0  0  0  0  0  0  0
    1.0530   -0.4669   -0.7622 C   0  0  0  0  0  0  0  0  0  0  0  0
    1.1453    0.0495    0.5498 C   0  0  0  0  0  0  0  0  0  0  0  0
    2.3905   -0.0192    1.2306 C   0  0  0  0  0  0  0  0  0  0  0  0
    2.5314    0.3171    2.5807 O   0  0  0  0  0  0  0  0  0  0  0  0
   -0.0574    0.7000    1.1398 C   0  0  0  0  0  0  0  0  0  0  0  0
    0.0696    1.5353    2.0741 O   0  0  0  0  0  0  0  0  0  0  0  0
   -1.4025    0.4516    0.5549 C   0  0  0  0  0  0  0  0  0  0  0  0
   -1.4953   -0.1469   -0.7173 C   0  0  0  0  0  0  0  0  0  0  0  0
   -2.7553   -0.3750   -1.2914 C   0  0  0  0  0  0  0  0  0  0  0  0
   -3.9303   -0.0176   -0.6174 C   0  0  0  0  0  0  0  0  0  0  0  0
   -5.2627   -0.2943   -1.2597 C   0  0  0  0  0  0  0  0  0  0  0  0
   -3.8441    0.5842    0.6552 C   0  0  0  0  0  0  0  0  0  0  0  0
   -4.9926    0.9507    1.3641 O   0  0  0  0  0  0  0  0  0  0  0  0
   -2.5848    0.8149    1.2393 C   0  0  0  0  0  0  0  0  0  0  0  0
   -2.5052    1.3902    2.5093 O   0  0  0  0  0  0  0  0  0  0  0  0
   -0.2620   -0.5298   -1.4445 C   0  0  0  0  0  0  0  0  0  0  0  0
   -0.3334   -0.9226   -2.6433 O   0  0  0  0  0  0  0  0  0  0  0  0
    6.1710    0.1890   -0.1859 H   0  0  0  0  0  0  0  0  0  0  0  0
    5.4966    1.4570    0.9307 H   0  0  0  0  0  0  0  0  0  0  0  0
    6.6794    0.2352    1.5438 H   0  0  0  0  0  0  0  0  0  0  0  0
    4.5383   -1.7489   -2.3715 H   0  0  0  0  0  0  0  0  0  0  0  0
    2.1455   -1.3225   -2.4218 H   0  0  0  0  0  0  0  0  0  0  0  0
    1.7544    0.4129    3.2227 H   0  0  0  0  0  0  0  0  0  0  0  0
   -2.8256   -0.8403   -2.2675 H   0  0  0  0  0  0  0  0  0  0  0  0
   -5.8528   -0.9940   -0.6282 H   0  0  0  0  0  0  0  0  0  0  0  0
   -5.1495   -0.7485   -2.2663 H   0  0  0  0  0  0  0  0  0  0  0  0
   -5.8211    0.6558   -1.3856 H   0  0  0  0  0  0  0  0  0  0  0  0
   -5.9320    0.8097    1.0140 H   0  0  0  0  0  0  0  0  0  0  0  0
   -3.3250    1.6669    3.0351 H   0  0  0  0  0  0  0  0  0  0  0  0
  1  2  1  0
  2  3  1  0
  3  4  2  0
  4  5  1  0
  4  6  1  0
  6  7  2  0
  7  8  1  0
  8  9  2  0
  9 10  1  0
  8 11  1  0
 11 12  2  0
 11 13  1  0
 13 14  2  0
 14 15  1  0
 15 16  2  0
 16 17  1  0
 16 18  1  0
 18 19  1  0
 18 20  2  0
 20 21  1  0
 14 22  1  0
 22 23  2  0
  9  3  1  0
 20 13  1  0
 22  7  1  0
  1 24  1  0
  1 25  1  0
  1 26  1  0
  5 27  1  0
  6 28  1  0
 10 29  1  0
 15 30  1  0
 17 31  1  0
 17 32  1  0
 17 33  1  0
 19 34  1  0
 21 35  1  0
M  END

     RDKit          3D

 38 40  0  0  0  0  0  0  0  0999 V2000
    4.4928    2.9494    0.0429 C   0  0  0  0  0  0  0  0  0  0  0  0
    4.3639    1.5322    0.0962 O   0  0  0  0  0  0  0  0  0  0  0  0
    3.1411    0.8407    0.1303 C   0  0  0  0  0  0  0  0  0  0  0  0
    1.9092    1.5137    0.1277 C   0  0  0  0  0  0  0  0  0  0  0  0
    0.7064    0.8005    0.1977 C   0  0  0  0  0  0  0  0  0  0  0  0
    0.7306   -0.6070    0.2486 C   0  0  0  0  0  0  0  0  0  0  0  0
    1.9690   -1.2929    0.1723 C   0  0  0  0  0  0  0  0  0  0  0  0
    2.0239   -2.6817    0.0348 O   0  0  0  0  0  0  0  0  0  0  0  0
    3.1751   -0.5586    0.1652 C   0  0  0  0  0  0  0  0  0  0  0  0
    4.4373   -1.1743    0.1440 O   0  0  0  0  0  0  0  0  0  0  0  0
    4.7584   -2.3804    0.8395 C   0  0  0  0  0  0  0  0  0  0  0  0
   -0.5582   -1.3158    0.4423 C   0  0  0  0  0  0  0  0  0  0  0  0
   -0.5882   -2.4081    1.0730 O   0  0  0  0  0  0  0  0  0  0  0  0
   -1.8273   -0.6471    0.0646 C   0  0  0  0  0  0  0  0  0  0  0  0
   -1.8532    0.7618    0.0361 C   0  0  0  0  0  0  0  0  0  0  0  0
   -3.0691    1.4352   -0.1697 C   0  0  0  0  0  0  0  0  0  0  0  0
   -4.2568    0.7228   -0.3665 C   0  0  0  0  0  0  0  0  0  0  0  0
   -5.5587    1.4610   -0.5368 C   0  0  0  0  0  0  0  0  0  0  0  0
   -4.2266   -0.6813   -0.3910 C   0  0  0  0  0  0  0  0  0  0  0  0
   -5.4119   -1.3858   -0.6117 O   0  0  0  0  0  0  0  0  0  0  0  0
   -3.0134   -1.3696   -0.2080 C   0  0  0  0  0  0  0  0  0  0  0  0
   -3.0207   -2.7610   -0.3374 O   0  0  0  0  0  0  0  0  0  0  0  0
   -0.5915    1.5178    0.2119 C   0  0  0  0  0  0  0  0  0  0  0  0
   -0.6184    2.7714    0.3392 O   0  0  0  0  0  0  0  0  0  0  0  0
    3.9831    3.4201    0.9104 H   0  0  0  0  0  0  0  0  0  0  0  0
    4.0618    3.3329   -0.9054 H   0  0  0  0  0  0  0  0  0  0  0  0
    5.5679    3.2200    0.0834 H   0  0  0  0  0  0  0  0  0  0  0  0
    1.8843    2.5941    0.0853 H   0  0  0  0  0  0  0  0  0  0  0  0
    1.2253   -3.2568   -0.2017 H   0  0  0  0  0  0  0  0  0  0  0  0
    4.3479   -2.3480    1.8703 H   0  0  0  0  0  0  0  0  0  0  0  0
    4.3718   -3.2666    0.2901 H   0  0  0  0  0  0  0  0  0  0  0  0
    5.8604   -2.4777    0.8925 H   0  0  0  0  0  0  0  0  0  0  0  0
   -3.0937    2.5172   -0.1637 H   0  0  0  0  0  0  0  0  0  0  0  0
   -5.4035    2.5529   -0.6595 H   0  0  0  0  0  0  0  0  0  0  0  0
   -6.0891    1.0969   -1.4408 H   0  0  0  0  0  0  0  0  0  0  0  0
   -6.2023    1.2920    0.3523 H   0  0  0  0  0  0  0  0  0  0  0  0
   -5.4445   -2.3973   -0.6701 H   0  0  0  0  0  0  0  0  0  0  0  0
   -2.1829   -3.3228   -0.4341 H   0  0  0  0  0  0  0  0  0  0  0  0
  1  2  1  0
  2  3  1  0
  3  4  2  0
  4  5  1  0
  5  6  2  0
  6  7  1  0
  7  8  1  0
  7  9  2  0
  9 10  1  0
 10 11  1  0
  6 12  1  0
 12 13  2  0
 12 14  1  0
 14 15  2  0
 15 16  1  0
 16 17  2  0
 17 18  1  0
 17 19  1  0
 19 20  1  0
 19 21  2  0
 21 22  1  0
 15 23  1  0
 23 24  2  0
  9  3  1  0
 21 14  1  0
 23  5  1  0
  1 25  1  0
  1 26  1  0
  1 27  1  0
  4 28  1  0
  8 29  1  0
 11 30  1  0
 11 31  1  0
 11 32  1  0
 16 33  1  0
 18 34  1  0
 18 35  1  0
 18 36  1  0
 20 37  1  0
 22 38  1  0
M  END

     RDKit          3D

 41 43  0  0  0  0  0  0  0  0999 V2000
   -4.4508    0.5459   -2.5580 C   0  0  0  0  0  0  0  0  0  0  0  0
   -4.1882    0.2821   -1.1814 O   0  0  0  0  0  0  0  0  0  0  0  0
   -2.9165    0.2774   -0.5863 C   0  0  0  0  0  0  0  0  0  0  0  0
   -1.7642    0.5715   -1.3342 C   0  0  0  0  0  0  0  0  0  0  0  0
   -0.5005    0.6042   -0.7300 C   0  0  0  0  0  0  0  0  0  0  0  0
   -0.3758    0.3501    0.6476 C   0  0  0  0  0  0  0  0  0  0  0  0
   -1.5216    0.0191    1.4051 C   0  0  0  0  0  0  0  0  0  0  0  0
   -1.3671   -0.2935    2.7656 O   0  0  0  0  0  0  0  0  0  0  0  0
   -1.9062   -1.4610    3.3836 C   0  0  0  0  0  0  0  0  0  0  0  0
   -2.7945   -0.0014    0.7942 C   0  0  0  0  0  0  0  0  0  0  0  0
   -3.9137   -0.2673    1.6033 O   0  0  0  0  0  0  0  0  0  0  0  0
   -5.0768   -0.9797    1.1833 C   0  0  0  0  0  0  0  0  0  0  0  0
    0.9771    0.3824    1.2614 C   0  0  0  0  0  0  0  0  0  0  0  0
    1.0942    0.5401    2.5077 O   0  0  0  0  0  0  0  0  0  0  0  0
    2.1887    0.3186    0.4001 C   0  0  0  0  0  0  0  0  0  0  0  0
    2.0538    0.6671   -0.9597 C   0  0  0  0  0  0  0  0  0  0  0  0
    3.1917    0.7566   -1.7733 C   0  0  0  0  0  0  0  0  0  0  0  0
    4.4658    0.4975   -1.2592 C   0  0  0  0  0  0  0  0  0  0  0  0
    5.6708    0.5920   -2.1528 C   0  0  0  0  0  0  0  0  0  0  0  0
    4.6014    0.0708    0.0702 C   0  0  0  0  0  0  0  0  0  0  0  0
    5.8704   -0.2585    0.5559 O   0  0  0  0  0  0  0  0  0  0  0  0
    3.4684   -0.0462    0.8974 C   0  0  0  0  0  0  0  0  0  0  0  0
    3.6480   -0.5651    2.1827 O   0  0  0  0  0  0  0  0  0  0  0  0
    0.7081    0.8968   -1.5340 C   0  0  0  0  0  0  0  0  0  0  0  0
    0.5902    1.3145   -2.7198 O   0  0  0  0  0  0  0  0  0  0  0  0
   -5.5414    0.4671   -2.7463 H   0  0  0  0  0  0  0  0  0  0  0  0
   -4.1218    1.5762   -2.8158 H   0  0  0  0  0  0  0  0  0  0  0  0
   -3.9317   -0.2040   -3.1947 H   0  0  0  0  0  0  0  0  0  0  0  0
   -1.8481    0.7739   -2.3946 H   0  0  0  0  0  0  0  0  0  0  0  0
   -1.4151   -1.6155    4.3706 H   0  0  0  0  0  0  0  0  0  0  0  0
   -2.9971   -1.3642    3.5563 H   0  0  0  0  0  0  0  0  0  0  0  0
   -1.7040   -2.3561    2.7559 H   0  0  0  0  0  0  0  0  0  0  0  0
   -5.6153   -1.3230    2.0922 H   0  0  0  0  0  0  0  0  0  0  0  0
   -5.7591   -0.3075    0.6067 H   0  0  0  0  0  0  0  0  0  0  0  0
   -4.7864   -1.8725    0.5716 H   0  0  0  0  0  0  0  0  0  0  0  0
    3.0911    1.0425   -2.8107 H   0  0  0  0  0  0  0  0  0  0  0  0
    6.0564   -0.4265   -2.3749 H   0  0  0  0  0  0  0  0  0  0  0  0
    6.4683    1.1773   -1.6503 H   0  0  0  0  0  0  0  0  0  0  0  0
    5.4274    1.0980   -3.1096 H   0  0  0  0  0  0  0  0  0  0  0  0
    6.0234   -0.5692    1.5065 H   0  0  0  0  0  0  0  0  0  0  0  0
    2.9006   -0.9105    2.7678 H   0  0  0  0  0  0  0  0  0  0  0  0
  1  2  1  0
  2  3  1  0
  3  4  2  0
  4  5  1  0
  5  6  2  0
  6  7  1  0
  7  8  1  0
  8  9  1  0
  7 10  2  0
 10 11  1  0
 11 12  1  0
  6 13  1  0
 13 14  2  0
 13 15  1  0
 15 16  2  0
 16 17  1  0
 17 18  2  0
 18 19  1  0
 18 20  1  0
 20 21  1  0
 20 22  2  0
 22 23  1  0
 16 24  1  0
 24 25  2  0
 10  3  1  0
 22 15  1  0
 24  5  1  0
  1 26  1  0
  1 27  1  0
  1 28  1  0
  4 29  1  0
  9 30  1  0
  9 31  1  0
  9 32  1  0
 12 33  1  0
 12 34  1  0
 12 35  1  0
 17 36  1  0
 19 37  1  0
 19 38  1  0
 19 39  1  0
 21 40  1  0
 23 41  1  0
M  END

     RDKit          3D

 45 47  0  0  0  0  0  0  0  0999 V2000
    6.7835   -2.3671   -0.5099 C   0  0  0  0  0  0  0  0  0  0  0  0
    6.1643   -1.6919    0.5805 O   0  0  0  0  0  0  0  0  0  0  0  0
    5.1498   -0.7329    0.4439 C   0  0  0  0  0  0  0  0  0  0  0  0
    4.6371   -0.1377    1.6024 C   0  0  0  0  0  0  0  0  0  0  0  0
    3.6293    0.8273    1.5194 C   0  0  0  0  0  0  0  0  0  0  0  0
    3.1212    1.2147    0.2697 C   0  0  0  0  0  0  0  0  0  0  0  0
    2.0238    2.2443    0.1744 C   0  0  0  0  0  0  0  0  0  0  0  0
    0.6498    1.6034   -0.0715 C   0  0  0  0  0  0  0  0  0  0  0  0
    0.1355    0.8400    1.1616 C   0  0  0  0  0  0  0  0  0  0  0  0
   -1.1946    0.1184    0.8967 C   0  0  0  0  0  0  0  0  0  0  0  0
   -2.3797    1.0855    0.7651 C   0  0  0  0  0  0  0  0  0  0  0  0
   -3.6685    0.3226    0.6080 C   0  0  0  0  0  0  0  0  0  0  0  0
   -4.4769    0.0487    1.7324 C   0  0  0  0  0  0  0  0  0  0  0  0
   -5.6674   -0.6934    1.6005 C   0  0  0  0  0  0  0  0  0  0  0  0
   -6.0678   -1.1838    0.3479 C   0  0  0  0  0  0  0  0  0  0  0  0
   -5.2584   -0.9214   -0.7547 C   0  0  0  0  0  0  0  0  0  0  0  0
   -4.0858   -0.1907   -0.6313 C   0  0  0  0  0  0  0  0  0  0  0  0
   -3.4849   -0.1255   -1.9620 C   0  0  0  0  0  0  0  0  0  0  0  0
   -2.4084    0.4368   -2.2936 O   0  0  0  0  0  0  0  0  0  0  0  0
   -4.3877   -0.8572   -2.8372 C   0  0  0  0  0  0  0  0  0  0  0  0
   -4.2305   -1.0369   -4.0735 O   0  0  0  0  0  0  0  0  0  0  0  0
   -5.4954   -1.3558   -2.0940 N   0  0  0  0  0  0  0  0  0  0  0  0
    3.6269    0.6139   -0.8933 C   0  0  0  0  0  0  0  0  0  0  0  0
    4.6351   -0.3510   -0.8099 C   0  0  0  0  0  0  0  0  0  0  0  0
    6.0284   -2.9556   -1.0731 H   0  0  0  0  0  0  0  0  0  0  0  0
    7.5548   -3.0605   -0.1161 H   0  0  0  0  0  0  0  0  0  0  0  0
    7.2761   -1.6339   -1.1832 H   0  0  0  0  0  0  0  0  0  0  0  0
    5.0213   -0.4263    2.5727 H   0  0  0  0  0  0  0  0  0  0  0  0
    3.2432    1.2695    2.4296 H   0  0  0  0  0  0  0  0  0  0  0  0
    1.9888    2.8682    1.0944 H   0  0  0  0  0  0  0  0  0  0  0  0
    2.2527    2.9341   -0.6674 H   0  0  0  0  0  0  0  0  0  0  0  0
   -0.0615    2.4182   -0.3230 H   0  0  0  0  0  0  0  0  0  0  0  0
    0.7060    0.9204   -0.9475 H   0  0  0  0  0  0  0  0  0  0  0  0
    0.0226    1.5379    2.0202 H   0  0  0  0  0  0  0  0  0  0  0  0
    0.8821    0.0693    1.4499 H   0  0  0  0  0  0  0  0  0  0  0  0
   -1.3895   -0.5674    1.7509 H   0  0  0  0  0  0  0  0  0  0  0  0
   -1.1062   -0.5067   -0.0182 H   0  0  0  0  0  0  0  0  0  0  0  0
   -2.4333    1.7310    1.6688 H   0  0  0  0  0  0  0  0  0  0  0  0
   -2.2441    1.7595   -0.1045 H   0  0  0  0  0  0  0  0  0  0  0  0
   -4.1859    0.4054    2.7131 H   0  0  0  0  0  0  0  0  0  0  0  0
   -6.2765   -0.8902    2.4731 H   0  0  0  0  0  0  0  0  0  0  0  0
   -6.9789   -1.7587    0.2437 H   0  0  0  0  0  0  0  0  0  0  0  0
   -6.2955   -1.9250   -2.4486 H   0  0  0  0  0  0  0  0  0  0  0  0
    3.2385    0.8936   -1.8652 H   0  0  0  0  0  0  0  0  0  0  0  0
    5.0064   -0.7930   -1.7246 H   0  0  0  0  0  0  0  0  0  0  0  0
  1  2  1  0
  2  3  1  0
  3  4  2  0
  4  5  1  0
  5  6  2  0
  6  7  1  0
  7  8  1  0
  8  9  1  0
  9 10  1  0
 10 11  1  0
 11 12  1  0
 12 13  2  0
 13 14  1  0
 14 15  2  0
 15 16  1  0
 16 17  2  0
 17 18  1  0
 18 19  2  0
 18 20  1  0
 20 21  2  0
 20 22  1  0
  6 23  1  0
 23 24  2  0
 24  3  1  0
 17 12  1  0
 22 16  1  0
  1 25  1  0
  1 26  1  0
  1 27  1  0
  4 28  1  0
  5 29  1  0
  7 30  1  0
  7 31  1  0
  8 32  1  0
  8 33  1  0
  9 34  1  0
  9 35  1  0
 10 36  1  0
 10 37  1  0
 11 38  1  0
 11 39  1  0
 13 40  1  0
 14 41  1  0
 15 42  1  0
 22 43  1  0
 23 44  1  0
 24 45  1  0
M  END

     RDKit          3D

 50 52  0  0  0  0  0  0  0  0999 V2000
   -5.4572   -2.0215    1.9679 C   0  0  0  0  0  0  0  0  0  0  0  0
   -4.5219   -0.9500    1.9661 O   0  0  0  0  0  0  0  0  0  0  0  0
   -3.8867   -0.5491    0.7905 C   0  0  0  0  0  0  0  0  0  0  0  0
   -2.6360   -1.1122    0.4295 C   0  0  0  0  0  0  0  0  0  0  0  0
   -2.0253   -2.0558    1.2577 O   0  0  0  0  0  0  0  0  0  0  0  0
   -1.9917   -0.7172   -0.7686 C   0  0  0  0  0  0  0  0  0  0  0  0
   -0.6537   -1.3015   -1.1525 C   0  0  0  0  0  0  0  0  0  0  0  0
    0.4844   -0.4665   -0.5581 C   0  0  0  0  0  0  0  0  0  0  0  0
    1.8503   -1.0673   -0.9062 C   0  0  0  0  0  0  0  0  0  0  0  0
    2.9809   -0.2931   -0.2203 C   0  0  0  0  0  0  0  0  0  0  0  0
    4.3495   -0.8935   -0.5574 C   0  0  0  0  0  0  0  0  0  0  0  0
    5.4349   -0.1868    0.2091 C   0  0  0  0  0  0  0  0  0  0  0  0
    5.7995   -0.6316    1.4911 C   0  0  0  0  0  0  0  0  0  0  0  0
    6.7856    0.0451    2.2170 C   0  0  0  0  0  0  0  0  0  0  0  0
    7.4007    1.1786    1.6770 C   0  0  0  0  0  0  0  0  0  0  0  0
    7.0330    1.6346    0.4077 C   0  0  0  0  0  0  0  0  0  0  0  0
    6.0488    0.9596   -0.3225 C   0  0  0  0  0  0  0  0  0  0  0  0
   -2.6137    0.2707   -1.5502 C   0  0  0  0  0  0  0  0  0  0  0  0
   -3.8346    0.8222   -1.1905 C   0  0  0  0  0  0  0  0  0  0  0  0
   -4.4854    0.4362   -0.0165 C   0  0  0  0  0  0  0  0  0  0  0  0
   -5.7065    1.0023    0.3561 O   0  0  0  0  0  0  0  0  0  0  0  0
   -5.8006    2.3400    0.8290 C   0  0  0  0  0  0  0  0  0  0  0  0
   -4.3071    1.7754   -2.1472 N   0  0  0  0  0  0  0  0  0  0  0  0
   -3.2933    1.8220   -3.1455 C   0  0  0  0  0  0  0  0  0  0  0  0
   -3.3462    2.5508   -4.1710 O   0  0  0  0  0  0  0  0  0  0  0  0
   -2.2167    0.9064   -2.8078 C   0  0  0  0  0  0  0  0  0  0  0  0
   -1.1612    0.7179   -3.4677 O   0  0  0  0  0  0  0  0  0  0  0  0
   -4.9591   -2.9569    1.6416 H   0  0  0  0  0  0  0  0  0  0  0  0
   -6.3021   -1.7903    1.2856 H   0  0  0  0  0  0  0  0  0  0  0  0
   -5.8531   -2.1593    2.9935 H   0  0  0  0  0  0  0  0  0  0  0  0
   -2.4374   -2.3546    2.1327 H   0  0  0  0  0  0  0  0  0  0  0  0
   -0.5520   -1.3564   -2.2565 H   0  0  0  0  0  0  0  0  0  0  0  0
   -0.5787   -2.3486   -0.7860 H   0  0  0  0  0  0  0  0  0  0  0  0
    0.4309    0.5704   -0.9556 H   0  0  0  0  0  0  0  0  0  0  0  0
    0.3683   -0.4252    0.5481 H   0  0  0  0  0  0  0  0  0  0  0  0
    1.8834   -2.1285   -0.5753 H   0  0  0  0  0  0  0  0  0  0  0  0
    1.9936   -1.0327   -2.0087 H   0  0  0  0  0  0  0  0  0  0  0  0
    2.9543    0.7700   -0.5482 H   0  0  0  0  0  0  0  0  0  0  0  0
    2.8306   -0.3280    0.8815 H   0  0  0  0  0  0  0  0  0  0  0  0
    4.3576   -1.9755   -0.3032 H   0  0  0  0  0  0  0  0  0  0  0  0
    4.5413   -0.8087   -1.6498 H   0  0  0  0  0  0  0  0  0  0  0  0
    5.3213   -1.5009    1.9263 H   0  0  0  0  0  0  0  0  0  0  0  0
    7.0615   -0.3020    3.2048 H   0  0  0  0  0  0  0  0  0  0  0  0
    8.1583    1.7069    2.2442 H   0  0  0  0  0  0  0  0  0  0  0  0
    7.5038    2.5169   -0.0071 H   0  0  0  0  0  0  0  0  0  0  0  0
    5.7637    1.3328   -1.2980 H   0  0  0  0  0  0  0  0  0  0  0  0
   -5.3349    3.0451    0.1096 H   0  0  0  0  0  0  0  0  0  0  0  0
   -5.2883    2.4260    1.8097 H   0  0  0  0  0  0  0  0  0  0  0  0
   -6.8702    2.6064    0.9590 H   0  0  0  0  0  0  0  0  0  0  0  0
   -5.2225    2.2775   -2.1566 H   0  0  0  0  0  0  0  0  0  0  0  0
  1  2  1  0
  2  3  1  0
  3  4  2  0
  4  5  1  0
  4  6  1  0
  6  7  1  0
  7  8  1  0
  8  9  1  0
  9 10  1  0
 10 11  1  0
 11 12  1  0
 12 13  2  0
 13 14  1  0
 14 15  2  0
 15 16  1  0
 16 17  2  0
  6 18  2  0
 18 19  1  0
 19 20  2  0
 20 21  1  0
 21 22  1  0
 19 23  1  0
 23 24  1  0
 24 25  2  0
 24 26  1  0
 26 27  2  0
 20  3  1  0
 17 12  1  0
 26 18  1  0
  1 28  1  0
  1 29  1  0
  1 30  1  0
  5 31  1  0
  7 32  1  0
  7 33  1  0
  8 34  1  0
  8 35  1  0
  9 36  1  0
  9 37  1  0
 10 38  1  0
 10 39  1  0
 11 40  1  0
 11 41  1  0
 13 42  1  0
 14 43  1  0
 15 44  1  0
 16 45  1  0
 17 46  1  0
 22 47  1  0
 22 48  1  0
 22 49  1  0
 23 50  1  0
M  END

     RDKit          3D

 32 34  0  0  0  0  0  0  0  0999 V2000
   -4.6984    0.8895   -0.1706 C   0  0  0  0  0  0  0  0  0  0  0  0
   -3.7502    0.0089    0.1649 C   0  0  0  0  0  0  0  0  0  0  0  0
   -3.6113   -1.3427   -0.4189 C   0  0  0  0  0  0  0  0  0  0  0  0
   -2.5000   -1.9748    0.1834 O   0  0  0  0  0  0  0  0  0  0  0  0
   -1.9337   -1.0867    1.1340 C   0  0  1  0  0  0  0  0  0  0  0  0
   -0.5760   -0.6569    0.6955 C   0  0  0  0  0  0  0  0  0  0  0  0
    0.5637   -1.4320    0.5012 C   0  0  0  0  0  0  0  0  0  0  0  0
    1.7585   -0.8060    0.0770 C   0  0  0  0  0  0  0  0  0  0  0  0
    2.9678   -1.6506   -0.1141 C   0  0  0  0  0  0  0  0  0  0  0  0
    4.3576   -1.1189    0.0651 C   0  0  0  0  0  0  0  0  0  0  0  0
    2.8298   -2.8614   -0.4385 O   0  0  0  0  0  0  0  0  0  0  0  0
    1.7624    0.6014   -0.1665 C   0  0  0  0  0  0  0  0  0  0  0  0
    2.9303    1.2187   -0.6430 O   0  0  0  0  0  0  0  0  0  0  0  0
    3.0570    2.6094   -0.9221 C   0  0  0  0  0  0  0  0  0  0  0  0
    0.5803    1.3500    0.0534 C   0  0  0  0  0  0  0  0  0  0  0  0
   -0.5628    0.6869    0.4823 C   0  0  0  0  0  0  0  0  0  0  0  0
   -1.7944    1.2507    0.7399 O   0  0  0  0  0  0  0  0  0  0  0  0
   -2.7121    0.2426    1.1678 C   0  0  1  0  0  0  0  0  0  0  0  0
   -4.7400    1.8634    0.3073 H   0  0  0  0  0  0  0  0  0  0  0  0
   -5.4389    0.6410   -0.9249 H   0  0  0  0  0  0  0  0  0  0  0  0
   -4.5279   -1.9389   -0.2211 H   0  0  0  0  0  0  0  0  0  0  0  0
   -3.4438   -1.2684   -1.5151 H   0  0  0  0  0  0  0  0  0  0  0  0
   -1.8935   -1.5634    2.1375 H   0  0  0  0  0  0  0  0  0  0  0  0
    0.5231   -2.4976    0.6902 H   0  0  0  0  0  0  0  0  0  0  0  0
    4.3825   -0.3621    0.8774 H   0  0  0  0  0  0  0  0  0  0  0  0
    5.0475   -1.9434    0.3435 H   0  0  0  0  0  0  0  0  0  0  0  0
    4.7123   -0.6680   -0.8847 H   0  0  0  0  0  0  0  0  0  0  0  0
    2.3391    2.9073   -1.7153 H   0  0  0  0  0  0  0  0  0  0  0  0
    4.0863    2.8137   -1.2809 H   0  0  0  0  0  0  0  0  0  0  0  0
    2.8778    3.2016    0.0001 H   0  0  0  0  0  0  0  0  0  0  0  0
    0.5391    2.4174   -0.1123 H   0  0  0  0  0  0  0  0  0  0  0  0
   -3.1323    0.4690    2.1716 H   0  0  0  0  0  0  0  0  0  0  0  0
  1  2  2  3
  2  3  1  0
  3  4  1  0
  4  5  1  0
  5  6  1  0
  6  7  2  0
  7  8  1  0
  8  9  1  0
  9 10  1  0
  9 11  2  0
  8 12  2  0
 12 13  1  0
 13 14  1  0
 12 15  1  0
 15 16  2  0
 16 17  1  0
 17 18  1  0
 18  2  1  0
 18  5  1  0
 16  6  1  0
  1 19  1  0
  1 20  1  0
  3 21  1  0
  3 22  1  0
  5 23  1  1
  7 24  1  0
 10 25  1  0
 10 26  1  0
 10 27  1  0
 14 28  1  0
 14 29  1  0
 14 30  1  0
 15 31  1  0
 18 32  1  1
M  END

     RDKit          3D

 35 37  0  0  0  0  0  0  0  0999 V2000
    5.4827    0.2515   -0.4838 C   0  0  0  0  0  0  0  0  0  0  0  0
    4.1898    0.7078   -0.8693 O   0  0  0  0  0  0  0  0  0  0  0  0
    2.9760    0.2294   -0.3436 C   0  0  0  0  0  0  0  0  0  0  0  0
    2.9550   -0.7803    0.6262 C   0  0  0  0  0  0  0  0  0  0  0  0
    1.7541   -1.2492    1.1617 C   0  0  0  0  0  0  0  0  0  0  0  0
    1.8017   -2.3355    2.0357 O   0  0  0  0  0  0  0  0  0  0  0  0
    0.5229   -0.6660    0.7742 C   0  0  0  0  0  0  0  0  0  0  0  0
   -0.7173   -1.0412    1.3716 C   0  0  0  0  0  0  0  0  0  0  0  0
   -0.7676   -1.7866    2.5546 O   0  0  0  0  0  0  0  0  0  0  0  0
   -1.9368   -0.6110    0.7976 C   0  0  0  0  0  0  0  0  0  0  0  0
   -3.2037   -1.0179    1.2782 C   0  0  0  0  0  0  0  0  0  0  0  0
   -3.3174   -1.8220    2.2423 O   0  0  0  0  0  0  0  0  0  0  0  0
   -4.3614   -0.5301    0.6717 C   0  0  0  0  0  0  0  0  0  0  0  0
   -4.2463    0.3522   -0.4047 C   0  0  0  0  0  0  0  0  0  0  0  0
   -5.4686    0.9005   -1.0676 C   0  0  0  0  0  0  0  0  0  0  0  0
   -3.0456    0.7284   -0.8309 O   0  0  0  0  0  0  0  0  0  0  0  0
   -1.9133    0.2919   -0.2852 C   0  0  0  0  0  0  0  0  0  0  0  0
   -0.7029    0.7532   -0.7910 C   0  0  0  0  0  0  0  0  0  0  0  0
    0.5272    0.2936   -0.2806 C   0  0  0  0  0  0  0  0  0  0  0  0
    1.7603    0.7653   -0.8146 C   0  0  0  0  0  0  0  0  0  0  0  0
    1.7858    1.8288   -1.8939 C   0  0  0  0  0  0  0  0  0  0  0  0
    5.6408    0.4233    0.6013 H   0  0  0  0  0  0  0  0  0  0  0  0
    6.2501    0.8186   -1.0489 H   0  0  0  0  0  0  0  0  0  0  0  0
    5.5938   -0.8264   -0.7225 H   0  0  0  0  0  0  0  0  0  0  0  0
    3.8781   -1.2319    0.9627 H   0  0  0  0  0  0  0  0  0  0  0  0
    2.6753   -2.7734    2.3032 H   0  0  0  0  0  0  0  0  0  0  0  0
   -0.0516   -1.7458    3.2662 H   0  0  0  0  0  0  0  0  0  0  0  0
   -5.3379   -0.8338    1.0317 H   0  0  0  0  0  0  0  0  0  0  0  0
   -5.1996    1.3760   -2.0353 H   0  0  0  0  0  0  0  0  0  0  0  0
   -5.9382    1.6616   -0.4088 H   0  0  0  0  0  0  0  0  0  0  0  0
   -6.1973    0.0849   -1.2650 H   0  0  0  0  0  0  0  0  0  0  0  0
   -0.7471    1.4599   -1.6088 H   0  0  0  0  0  0  0  0  0  0  0  0
    1.3176    1.4331   -2.8200 H   0  0  0  0  0  0  0  0  0  0  0  0
    2.8101    2.1637   -2.1546 H   0  0  0  0  0  0  0  0  0  0  0  0
    1.2313    2.7274   -1.5498 H   0  0  0  0  0  0  0  0  0  0  0  0
  1  2  1  0
  2  3  1  0
  3  4  2  0
  4  5  1  0
  5  6  1  0
  5  7  2  0
  7  8  1  0
  8  9  1  0
  8 10  2  0
 10 11  1  0
 11 12  2  0
 11 13  1  0
 13 14  2  0
 14 15  1  0
 14 16  1  0
 16 17  1  0
 17 18  2  0
 18 19  1  0
 19 20  2  0
 20 21  1  0
 20  3  1  0
 19  7  1  0
 17 10  1  0
  1 22  1  0
  1 23  1  0
  1 24  1  0
  4 25  1  0
  6 26  1  0
  9 27  1  0
 13 28  1  0
 15 29  1  0
 15 30  1  0
 15 31  1  0
 18 32  1  0
 21 33  1  0
 21 34  1  0
 21 35  1  0
M  END

     RDKit          3D

 34 35  0  0  0  0  0  0  0  0999 V2000
    5.0389    1.4750    1.0167 C   0  0  0  0  0  0  0  0  0  0  0  0
    3.7179    1.0585    0.6945 O   0  0  0  0  0  0  0  0  0  0  0  0
    3.4448    0.1310   -0.3179 C   0  0  0  0  0  0  0  0  0  0  0  0
    4.3826   -0.3684   -0.9962 O   0  0  0  0  0  0  0  0  0  0  0  0
    2.0597   -0.2715   -0.6053 C   0  0  0  0  0  0  0  0  0  0  0  0
    1.0216    0.2271    0.0753 C   0  0  0  0  0  0  0  0  0  0  0  0
   -0.3777   -0.1571   -0.2248 C   0  0  0  0  0  0  0  0  0  0  0  0
   -1.4094    0.8357   -0.3387 C   0  0  0  0  0  0  0  0  0  0  0  0
   -1.1425    2.2914   -0.3054 C   0  0  0  0  0  0  0  0  0  0  0  0
    0.0073    2.7483   -0.5548 O   0  0  0  0  0  0  0  0  0  0  0  0
   -2.1998    3.1668   -0.0354 O   0  0  0  0  0  0  0  0  0  0  0  0
   -2.0353    4.5794    0.0061 C   0  0  0  0  0  0  0  0  0  0  0  0
   -2.7087    0.4466   -0.5167 N   0  0  0  0  0  0  0  0  0  0  0  0
   -3.0175   -0.8670   -0.5996 C   0  0  0  0  0  0  0  0  0  0  0  0
   -4.2084   -1.3699   -0.8023 O   0  0  0  0  0  0  0  0  0  0  0  0
   -4.0733   -2.6825   -0.8490 C   0  0  0  0  0  0  0  0  0  0  0  0
   -2.7403   -3.0406   -0.6673 C   0  0  0  0  0  0  0  0  0  0  0  0
   -2.0764   -1.8441   -0.4971 C   0  0  0  0  0  0  0  0  0  0  0  0
   -0.7335   -1.5316   -0.2826 C   0  0  0  0  0  0  0  0  0  0  0  0
    0.2324   -2.5289   -0.1093 O   0  0  0  0  0  0  0  0  0  0  0  0
    0.1983   -3.4431    0.9809 C   0  0  0  0  0  0  0  0  0  0  0  0
    4.9945    2.2175    1.8405 H   0  0  0  0  0  0  0  0  0  0  0  0
    5.5147    1.9465    0.1303 H   0  0  0  0  0  0  0  0  0  0  0  0
    5.6428    0.6039    1.3505 H   0  0  0  0  0  0  0  0  0  0  0  0
    1.8890   -0.9797   -1.4082 H   0  0  0  0  0  0  0  0  0  0  0  0
    1.1893    0.9711    0.8448 H   0  0  0  0  0  0  0  0  0  0  0  0
   -3.0040    5.0530    0.2713 H   0  0  0  0  0  0  0  0  0  0  0  0
   -1.7108    4.9519   -0.9885 H   0  0  0  0  0  0  0  0  0  0  0  0
   -1.2792    4.8516    0.7736 H   0  0  0  0  0  0  0  0  0  0  0  0
   -4.8913   -3.3710   -1.0139 H   0  0  0  0  0  0  0  0  0  0  0  0
   -2.3281   -4.0397   -0.6867 H   0  0  0  0  0  0  0  0  0  0  0  0
    1.1153   -4.0671    0.9589 H   0  0  0  0  0  0  0  0  0  0  0  0
    0.1718   -2.8850    1.9406 H   0  0  0  0  0  0  0  0  0  0  0  0
   -0.6845   -4.1079    0.9157 H   0  0  0  0  0  0  0  0  0  0  0  0
  1  2  1  0
  2  3  1  0
  3  4  2  0
  3  5  1  0
  5  6  2  0
  6  7  1  0
  7  8  2  0
  8  9  1  0
  9 10  2  0
  9 11  1  0
 11 12  1  0
  8 13  1  0
 13 14  2  0
 14 15  1  0
 15 16  1  0
 16 17  2  0
 17 18  1  0
 18 19  2  0
 19 20  1  0
 20 21  1  0
 19  7  1  0
 18 14  1  0
  1 22  1  0
  1 23  1  0
  1 24  1  0
  5 25  1  0
  6 26  1  0
 12 27  1  0
 12 28  1  0
 12 29  1  0
 16 30  1  0
 17 31  1  0
 21 32  1  0
 21 33  1  0
 21 34  1  0
M  END

     RDKit          3D

 39 39  0  0  0  0  0  0  0  0999 V2000
    1.0439   -1.9794   -2.8368 C   0  0  0  0  0  0  0  0  0  0  0  0
    0.8326   -0.9299   -2.0243 C   0  0  0  0  0  0  0  0  0  0  0  0
    0.5220    0.4087   -2.6507 C   0  0  0  0  0  0  0  0  0  0  0  0
    0.9072   -1.1234   -0.5099 C   0  0  1  0  0  0  0  0  0  0  0  0
    1.4262    0.1392    0.2263 C   0  0  0  0  0  0  0  0  0  0  0  0
    2.1055   -0.1942    1.5654 C   0  0  0  0  0  0  0  0  0  0  0  0
    2.4347    1.0565    2.3375 C   0  0  0  0  0  0  0  0  0  0  0  0
    3.3797    2.0782    1.7759 C   0  0  0  0  0  0  0  0  0  0  0  0
    1.9033    1.2565    3.4227 O   0  0  0  0  0  0  0  0  0  0  0  0
   -0.4289   -1.6708    0.0610 C   0  0  0  0  0  0  0  0  0  0  0  0
   -1.6062   -0.7314   -0.0952 C   0  0  0  0  0  0  0  0  0  0  0  0
   -2.1326    0.0533    0.8456 C   0  0  0  0  0  0  0  0  0  0  0  0
   -1.6914    0.1081    2.2783 C   0  0  0  0  0  0  0  0  0  0  0  0
   -3.3006    0.8477    0.3347 C   0  0  0  0  0  0  0  0  0  0  0  0
   -3.4417    0.4472   -1.1406 C   0  0  0  0  0  0  0  0  0  0  0  0
   -2.3879   -0.5813   -1.3084 C   0  0  0  0  0  0  0  0  0  0  0  0
   -2.2241   -1.2555   -2.3578 O   0  0  0  0  0  0  0  0  0  0  0  0
    0.9997   -1.8688   -3.9169 H   0  0  0  0  0  0  0  0  0  0  0  0
    1.2593   -2.9655   -2.4340 H   0  0  0  0  0  0  0  0  0  0  0  0
    1.4345    0.8151   -3.1311 H   0  0  0  0  0  0  0  0  0  0  0  0
    0.1559    1.1394   -1.9039 H   0  0  0  0  0  0  0  0  0  0  0  0
   -0.2662    0.2959   -3.4237 H   0  0  0  0  0  0  0  0  0  0  0  0
    1.6694   -1.9165   -0.3297 H   0  0  0  0  0  0  0  0  0  0  0  0
    2.1833    0.6454   -0.4116 H   0  0  0  0  0  0  0  0  0  0  0  0
    0.5989    0.8597    0.3901 H   0  0  0  0  0  0  0  0  0  0  0  0
    1.4490   -0.8439    2.1812 H   0  0  0  0  0  0  0  0  0  0  0  0
    3.0456   -0.7522    1.3734 H   0  0  0  0  0  0  0  0  0  0  0  0
    4.2680    1.5726    1.3458 H   0  0  0  0  0  0  0  0  0  0  0  0
    2.8690    2.6626    0.9836 H   0  0  0  0  0  0  0  0  0  0  0  0
    3.7166    2.7763    2.5713 H   0  0  0  0  0  0  0  0  0  0  0  0
   -0.2952   -1.9485    1.1260 H   0  0  0  0  0  0  0  0  0  0  0  0
   -0.6718   -2.6239   -0.4581 H   0  0  0  0  0  0  0  0  0  0  0  0
   -2.3391    0.8027    2.8526 H   0  0  0  0  0  0  0  0  0  0  0  0
   -1.7656   -0.8995    2.7363 H   0  0  0  0  0  0  0  0  0  0  0  0
   -0.6505    0.4711    2.3481 H   0  0  0  0  0  0  0  0  0  0  0  0
   -4.2200    0.5842    0.9023 H   0  0  0  0  0  0  0  0  0  0  0  0
   -3.0967    1.9356    0.4317 H   0  0  0  0  0  0  0  0  0  0  0  0
   -3.2396    1.3120   -1.8113 H   0  0  0  0  0  0  0  0  0  0  0  0
   -4.4460    0.0166   -1.3457 H   0  0  0  0  0  0  0  0  0  0  0  0
  1  2  2  3
  2  3  1  0
  2  4  1  0
  4  5  1  0
  5  6  1  0
  6  7  1  0
  7  8  1  0
  7  9  2  0
  4 10  1  0
 10 11  1  0
 11 12  2  0
 12 13  1  0
 12 14  1  0
 14 15  1  0
 15 16  1  0
 16 17  2  0
 16 11  1  0
  1 18  1  0
  1 19  1  0
  3 20  1  0
  3 21  1  0
  3 22  1  0
  4 23  1  6
  5 24  1  0
  5 25  1  0
  6 26  1  0
  6 27  1  0
  8 28  1  0
  8 29  1  0
  8 30  1  0
 10 31  1  0
 10 32  1  0
 13 33  1  0
 13 34  1  0
 13 35  1  0
 14 36  1  0
 14 37  1  0
 15 38  1  0
 15 39  1  0
M  END

     RDKit          3D

 35 37  0  0  0  0  0  0  0  0999 V2000
    5.7401    0.4136   -0.5529 C   0  0  0  0  0  0  0  0  0  0  0  0
    4.4364    0.9458   -0.3346 O   0  0  0  0  0  0  0  0  0  0  0  0
    3.2482    0.2207   -0.5042 C   0  0  0  0  0  0  0  0  0  0  0  0
    3.2394   -1.1366   -0.9357 C   0  0  0  0  0  0  0  0  0  0  0  0
    2.0280   -1.8426   -1.0533 C   0  0  0  0  0  0  0  0  0  0  0  0
    0.8465   -1.1738   -0.7428 C   0  0  0  0  0  0  0  0  0  0  0  0
   -0.4019   -1.6816   -0.7375 N   0  0  0  0  0  0  0  0  0  0  0  0
   -1.1953   -0.6701   -0.3172 C   0  0  0  0  0  0  0  0  0  0  0  0
   -0.4559    0.4637   -0.0536 C   0  0  0  0  0  0  0  0  0  0  0  0
    0.8517    0.1375   -0.3359 C   0  0  0  0  0  0  0  0  0  0  0  0
    2.0304    0.8667   -0.2139 C   0  0  0  0  0  0  0  0  0  0  0  0
   -1.0467    1.7525    0.4082 C   0  0  0  0  0  0  0  0  0  0  0  0
   -2.4460    1.4965    1.0080 C   0  0  0  0  0  0  0  0  0  0  0  0
   -3.2804    0.5690    0.1913 N   0  0  0  0  0  0  0  0  0  0  0  0
   -3.6660    1.1814   -1.0921 C   0  0  0  0  0  0  0  0  0  0  0  0
   -2.6641   -0.7739   -0.0135 C   0  0  2  0  0  0  0  0  0  0  0  0
   -2.8869   -1.6447    1.2242 C   0  0  0  0  0  0  0  0  0  0  0  0
    5.9024   -0.4820    0.0843 H   0  0  0  0  0  0  0  0  0  0  0  0
    5.8674    0.1570   -1.6265 H   0  0  0  0  0  0  0  0  0  0  0  0
    6.4963    1.1766   -0.2827 H   0  0  0  0  0  0  0  0  0  0  0  0
    4.1624   -1.6540   -1.1669 H   0  0  0  0  0  0  0  0  0  0  0  0
    2.0175   -2.8800   -1.3614 H   0  0  0  0  0  0  0  0  0  0  0  0
   -0.6885   -2.6596   -0.9662 H   0  0  0  0  0  0  0  0  0  0  0  0
    2.0137    1.8929    0.1261 H   0  0  0  0  0  0  0  0  0  0  0  0
   -0.3926    2.2161    1.1728 H   0  0  0  0  0  0  0  0  0  0  0  0
   -1.1265    2.4490   -0.4506 H   0  0  0  0  0  0  0  0  0  0  0  0
   -2.9713    2.4687    1.1355 H   0  0  0  0  0  0  0  0  0  0  0  0
   -2.3293    1.0779    2.0327 H   0  0  0  0  0  0  0  0  0  0  0  0
   -4.4937    0.6024   -1.5526 H   0  0  0  0  0  0  0  0  0  0  0  0
   -2.8081    1.1985   -1.8013 H   0  0  0  0  0  0  0  0  0  0  0  0
   -4.0382    2.2152   -0.9376 H   0  0  0  0  0  0  0  0  0  0  0  0
   -3.1568   -1.2959   -0.8650 H   0  0  0  0  0  0  0  0  0  0  0  0
   -3.9653   -1.6794    1.4751 H   0  0  0  0  0  0  0  0  0  0  0  0
   -2.5424   -2.6828    1.0321 H   0  0  0  0  0  0  0  0  0  0  0  0
   -2.3245   -1.2446    2.0921 H   0  0  0  0  0  0  0  0  0  0  0  0
  1  2  1  0
  2  3  1  0
  3  4  2  0
  4  5  1  0
  5  6  2  0
  6  7  1  0
  7  8  1  0
  8  9  2  0
  9 10  1  0
 10 11  2  0
  9 12  1  0
 12 13  1  0
 13 14  1  0
 14 15  1  0
 14 16  1  0
 16 17  1  0
 11  3  1  0
 10  6  1  0
 16  8  1  0
  1 18  1  0
  1 19  1  0
  1 20  1  0
  4 21  1  0
  5 22  1  0
  7 23  1  0
 11 24  1  0
 12 25  1  0
 12 26  1  0
 13 27  1  0
 13 28  1  0
 15 29  1  0
 15 30  1  0
 15 31  1  0
 16 32  1  6
 17 33  1  0
 17 34  1  0
 17 35  1  0
M  END

     RDKit          3D

 32 34  0  0  0  0  0  0  0  0999 V2000
    3.8124    1.8155    0.0051 C   0  0  0  0  0  0  0  0  0  0  0  0
    2.4843    1.3127   -0.0886 O   0  0  0  0  0  0  0  0  0  0  0  0
    2.1497   -0.0472   -0.0183 C   0  0  0  0  0  0  0  0  0  0  0  0
    3.1147   -1.0695    0.1545 C   0  0  0  0  0  0  0  0  0  0  0  0
    2.7236   -2.4252    0.2110 C   0  0  0  0  0  0  0  0  0  0  0  0
    1.3704   -2.7853    0.0940 C   0  0  0  0  0  0  0  0  0  0  0  0
    0.4362   -1.7661   -0.0731 C   0  0  0  0  0  0  0  0  0  0  0  0
   -0.8954   -1.9033   -0.2255 N   0  0  0  0  0  0  0  0  0  0  0  0
   -1.3663   -0.6456   -0.3782 C   0  0  0  0  0  0  0  0  0  0  0  0
   -0.3495    0.2826   -0.2981 C   0  0  0  0  0  0  0  0  0  0  0  0
    0.8127   -0.4420   -0.1218 C   0  0  0  0  0  0  0  0  0  0  0  0
   -0.5555    1.7461   -0.5127 C   0  0  0  0  0  0  0  0  0  0  0  0
   -2.0491    2.0867   -0.3416 C   0  0  0  0  0  0  0  0  0  0  0  0
   -2.9252    1.1362   -1.0609 N   0  0  0  0  0  0  0  0  0  0  0  0
   -2.8049   -0.2618   -0.5835 C   0  0  2  0  0  0  0  0  0  0  0  0
   -3.6110   -0.4676    0.7013 C   0  0  0  0  0  0  0  0  0  0  0  0
    3.7883    2.9210   -0.0820 H   0  0  0  0  0  0  0  0  0  0  0  0
    4.2543    1.5452    0.9873 H   0  0  0  0  0  0  0  0  0  0  0  0
    4.4342    1.4069   -0.8193 H   0  0  0  0  0  0  0  0  0  0  0  0
    4.1655   -0.8305    0.2439 H   0  0  0  0  0  0  0  0  0  0  0  0
    3.4732   -3.1949    0.3416 H   0  0  0  0  0  0  0  0  0  0  0  0
    1.0656   -3.8233    0.1288 H   0  0  0  0  0  0  0  0  0  0  0  0
   -1.4455   -2.7911   -0.2374 H   0  0  0  0  0  0  0  0  0  0  0  0
    0.0428    2.3282    0.2198 H   0  0  0  0  0  0  0  0  0  0  0  0
   -0.2265    2.0095   -1.5405 H   0  0  0  0  0  0  0  0  0  0  0  0
   -2.2306    3.1118   -0.7300 H   0  0  0  0  0  0  0  0  0  0  0  0
   -2.3094    2.1015    0.7382 H   0  0  0  0  0  0  0  0  0  0  0  0
   -2.6711    1.1634   -2.0769 H   0  0  0  0  0  0  0  0  0  0  0  0
   -3.2331   -0.9365   -1.3579 H   0  0  0  0  0  0  0  0  0  0  0  0
   -4.6557   -0.1217    0.5512 H   0  0  0  0  0  0  0  0  0  0  0  0
   -3.1644    0.0912    1.5504 H   0  0  0  0  0  0  0  0  0  0  0  0
   -3.6345   -1.5465    0.9653 H   0  0  0  0  0  0  0  0  0  0  0  0
  1  2  1  0
  2  3  1  0
  3  4  2  0
  4  5  1  0
  5  6  2  0
  6  7  1  0
  7  8  1  0
  8  9  1  0
  9 10  2  0
 10 11  1  0
 10 12  1  0
 12 13  1  0
 13 14  1  0
 14 15  1  0
 15 16  1  0
 11  3  1  0
 11  7  2  0
 15  9  1  0
  1 17  1  0
  1 18  1  0
  1 19  1  0
  4 20  1  0
  5 21  1  0
  6 22  1  0
  8 23  1  0
 12 24  1  0
 12 25  1  0
 13 26  1  0
 13 27  1  0
 14 28  1  0
 15 29  1  6
 16 30  1  0
 16 31  1  0
 16 32  1  0
M  END

     RDKit          3D

 36 38  0  0  0  0  0  0  0  0999 V2000
   -4.6612    2.6030   -0.6013 C   0  0  0  0  0  0  0  0  0  0  0  0
   -4.8116    1.1977   -0.4196 O   0  0  0  0  0  0  0  0  0  0  0  0
   -3.7450    0.3019   -0.2507 C   0  0  0  0  0  0  0  0  0  0  0  0
   -4.0367   -1.0496   -0.0557 C   0  0  0  0  0  0  0  0  0  0  0  0
   -3.0192   -1.9946    0.1226 C   0  0  0  0  0  0  0  0  0  0  0  0
   -3.4120   -3.3076    0.3906 O   0  0  0  0  0  0  0  0  0  0  0  0
   -1.6603   -1.5839    0.0516 C   0  0  0  0  0  0  0  0  0  0  0  0
   -1.3765   -0.2111   -0.0899 C   0  0  0  0  0  0  0  0  0  0  0  0
   -2.4054    0.7175   -0.2594 C   0  0  0  0  0  0  0  0  0  0  0  0
   -0.0553    0.2413   -0.0665 O   0  0  0  0  0  0  0  0  0  0  0  0
    0.9957   -0.5344    0.5071 C   0  0  2  0  0  0  0  0  0  0  0  0
    2.3157    0.1843    0.2693 C   0  0  0  0  0  0  0  0  0  0  0  0
    3.4336   -0.4155   -0.3536 C   0  0  0  0  0  0  0  0  0  0  0  0
    4.6137    0.3107   -0.5453 C   0  0  0  0  0  0  0  0  0  0  0  0
    4.7012    1.6406   -0.1256 C   0  0  0  0  0  0  0  0  0  0  0  0
    5.8781    2.3550   -0.3405 O   0  0  0  0  0  0  0  0  0  0  0  0
    3.6051    2.2430    0.5022 C   0  0  0  0  0  0  0  0  0  0  0  0
    2.4265    1.5190    0.7046 C   0  0  0  0  0  0  0  0  0  0  0  0
    0.9148   -1.9861   -0.0264 C   0  0  1  0  0  0  0  0  0  0  0  0
    1.7853   -2.8298    0.6881 O   0  0  0  0  0  0  0  0  0  0  0  0
   -0.5001   -2.5199    0.0283 C   0  0  0  0  0  0  0  0  0  0  0  0
   -0.6696   -3.7619   -0.0931 O   0  0  0  0  0  0  0  0  0  0  0  0
   -4.1640    3.0507    0.2843 H   0  0  0  0  0  0  0  0  0  0  0  0
   -4.0690    2.8098   -1.5183 H   0  0  0  0  0  0  0  0  0  0  0  0
   -5.6627    3.0622   -0.7150 H   0  0  0  0  0  0  0  0  0  0  0  0
   -5.0718   -1.3674   -0.0234 H   0  0  0  0  0  0  0  0  0  0  0  0
   -2.7975   -4.0217    0.7536 H   0  0  0  0  0  0  0  0  0  0  0  0
   -2.1472    1.7597   -0.3890 H   0  0  0  0  0  0  0  0  0  0  0  0
    0.8305   -0.5648    1.6076 H   0  0  0  0  0  0  0  0  0  0  0  0
    3.4135   -1.4383   -0.7001 H   0  0  0  0  0  0  0  0  0  0  0  0
    5.4616   -0.1616   -1.0276 H   0  0  0  0  0  0  0  0  0  0  0  0
    5.9589    3.3296   -0.0777 H   0  0  0  0  0  0  0  0  0  0  0  0
    3.6645    3.2732    0.8317 H   0  0  0  0  0  0  0  0  0  0  0  0
    1.5901    2.0069    1.1947 H   0  0  0  0  0  0  0  0  0  0  0  0
    1.2108   -1.9942   -1.0973 H   0  0  0  0  0  0  0  0  0  0  0  0
    1.4656   -2.8637    1.6293 H   0  0  0  0  0  0  0  0  0  0  0  0
  1  2  1  0
  2  3  1  0
  3  4  2  0
  4  5  1  0
  5  6  1  0
  5  7  2  0
  7  8  1  0
  8  9  2  0
  8 10  1  0
 10 11  1  0
 11 12  1  0
 12 13  2  0
 13 14  1  0
 14 15  2  0
 15 16  1  0
 15 17  1  0
 17 18  2  0
 11 19  1  0
 19 20  1  0
 19 21  1  0
 21 22  2  0
  9  3  1  0
 18 12  1  0
 21  7  1  0
  1 23  1  0
  1 24  1  0
  1 25  1  0
  4 26  1  0
  6 27  1  0
  9 28  1  0
 11 29  1  1
 13 30  1  0
 14 31  1  0
 16 32  1  0
 17 33  1  0
 18 34  1  0
 19 35  1  6
 20 36  1  0
M  END

     RDKit          3D

 39 41  0  0  0  0  0  0  0  0999 V2000
    5.4955   -0.9362   -2.0291 C   0  0  0  0  0  0  0  0  0  0  0  0
    4.9102    0.0497   -1.1789 O   0  0  0  0  0  0  0  0  0  0  0  0
    3.5838    0.0229   -0.7221 C   0  0  0  0  0  0  0  0  0  0  0  0
    2.7051   -1.0305   -1.0422 C   0  0  0  0  0  0  0  0  0  0  0  0
    1.3879   -1.0132   -0.5802 C   0  0  0  0  0  0  0  0  0  0  0  0
    0.9227    0.0565    0.2019 C   0  0  0  0  0  0  0  0  0  0  0  0
   -0.5097    0.0871    0.6825 C   0  0  2  0  0  0  0  0  0  0  0  0
   -0.7583   -0.9749    1.7704 C   0  0  0  0  0  0  0  0  0  0  0  0
   -2.2269   -1.2401    1.9867 C   0  0  0  0  0  0  0  0  0  0  0  0
   -2.5587   -2.0027    2.9395 O   0  0  0  0  0  0  0  0  0  0  0  0
   -3.2371   -0.7622    1.0068 C   0  0  0  0  0  0  0  0  0  0  0  0
   -4.6402   -0.8271    1.2176 C   0  0  0  0  0  0  0  0  0  0  0  0
   -5.2130   -1.1646    2.4471 O   0  0  0  0  0  0  0  0  0  0  0  0
   -5.5072   -0.5152    0.1626 C   0  0  0  0  0  0  0  0  0  0  0  0
   -5.0102   -0.1174   -1.0824 C   0  0  0  0  0  0  0  0  0  0  0  0
   -5.8991    0.1738   -2.1159 O   0  0  0  0  0  0  0  0  0  0  0  0
   -3.6304    0.0012   -1.2764 C   0  0  0  0  0  0  0  0  0  0  0  0
   -2.7555   -0.2901   -0.2310 C   0  0  0  0  0  0  0  0  0  0  0  0
   -1.3890   -0.1040   -0.4213 O   0  0  0  0  0  0  0  0  0  0  0  0
    1.8002    1.1016    0.5281 C   0  0  0  0  0  0  0  0  0  0  0  0
    3.1308    1.0911    0.0708 C   0  0  0  0  0  0  0  0  0  0  0  0
    4.0304    2.1261    0.3749 O   0  0  0  0  0  0  0  0  0  0  0  0
    3.7076    3.2770    1.1518 C   0  0  0  0  0  0  0  0  0  0  0  0
    5.4899   -1.9330   -1.5339 H   0  0  0  0  0  0  0  0  0  0  0  0
    6.5487   -0.6544   -2.2448 H   0  0  0  0  0  0  0  0  0  0  0  0
    4.9445   -0.9901   -2.9911 H   0  0  0  0  0  0  0  0  0  0  0  0
    3.0331   -1.8686   -1.6449 H   0  0  0  0  0  0  0  0  0  0  0  0
    0.7188   -1.8238   -0.8477 H   0  0  0  0  0  0  0  0  0  0  0  0
   -0.7388    1.0855    1.1213 H   0  0  0  0  0  0  0  0  0  0  0  0
   -0.2612   -1.9412    1.5007 H   0  0  0  0  0  0  0  0  0  0  0  0
   -0.3130   -0.6156    2.7263 H   0  0  0  0  0  0  0  0  0  0  0  0
   -4.6989   -1.1813    3.3173 H   0  0  0  0  0  0  0  0  0  0  0  0
   -6.5779   -0.5715    0.3188 H   0  0  0  0  0  0  0  0  0  0  0  0
   -5.5689    0.4613   -3.0293 H   0  0  0  0  0  0  0  0  0  0  0  0
   -3.2359    0.3415   -2.2286 H   0  0  0  0  0  0  0  0  0  0  0  0
    1.4333    1.9240    1.1291 H   0  0  0  0  0  0  0  0  0  0  0  0
    4.6110    3.9136    1.2455 H   0  0  0  0  0  0  0  0  0  0  0  0
    2.9120    3.8674    0.6521 H   0  0  0  0  0  0  0  0  0  0  0  0
    3.3645    2.9771    2.1644 H   0  0  0  0  0  0  0  0  0  0  0  0
  1  2  1  0
  2  3  1  0
  3  4  2  0
  4  5  1  0
  5  6  2  0
  6  7  1  0
  7  8  1  0
  8  9  1  0
  9 10  2  0
  9 11  1  0
 11 12  2  0
 12 13  1  0
 12 14  1  0
 14 15  2  0
 15 16  1  0
 15 17  1  0
 17 18  2  0
 18 19  1  0
  6 20  1  0
 20 21  2  0
 21 22  1  0
 22 23  1  0
 21  3  1  0
 19  7  1  0
 18 11  1  0
  1 24  1  0
  1 25  1  0
  1 26  1  0
  4 27  1  0
  5 28  1  0
  7 29  1  1
  8 30  1  0
  8 31  1  0
 13 32  1  0
 14 33  1  0
 16 34  1  0
 17 35  1  0
 20 36  1  0
 23 37  1  0
 23 38  1  0
 23 39  1  0
M  END

     RDKit          3D

 49 51  0  0  0  0  0  0  0  0999 V2000
    0.8742   -3.8580    0.2867 C   0  0  0  0  0  0  0  0  0  0  0  0
    0.5594   -2.8563   -0.6756 O   0  0  0  0  0  0  0  0  0  0  0  0
   -0.1111   -1.6844   -0.3207 C   0  0  0  0  0  0  0  0  0  0  0  0
   -1.4758   -1.7145   -0.0061 C   0  0  0  0  0  0  0  0  0  0  0  0
   -2.1472   -2.9364   -0.1191 O   0  0  0  0  0  0  0  0  0  0  0  0
   -2.1336   -0.5248    0.3922 C   0  0  0  0  0  0  0  0  0  0  0  0
   -3.6048   -0.5296    0.7539 C   0  0  0  0  0  0  0  0  0  0  0  0
   -4.4369   -0.4296   -0.5035 C   0  0  0  0  0  0  0  0  0  0  0  0
   -5.3900    0.5033   -0.7277 C   0  0  0  0  0  0  0  0  0  0  0  0
   -6.1518    0.4950   -2.0295 C   0  0  0  0  0  0  0  0  0  0  0  0
   -5.7476    1.5558    0.2913 C   0  0  0  0  0  0  0  0  0  0  0  0
   -1.4162    0.6942    0.4162 C   0  0  0  0  0  0  0  0  0  0  0  0
   -2.0755    1.8410    0.8695 O   0  0  0  0  0  0  0  0  0  0  0  0
   -0.0539    0.7231    0.0204 C   0  0  0  0  0  0  0  0  0  0  0  0
    0.5904   -0.4786   -0.3210 C   0  0  0  0  0  0  0  0  0  0  0  0
    1.9536   -0.4885   -0.6525 O   0  0  0  0  0  0  0  0  0  0  0  0
    2.7051    0.6998   -0.9207 C   0  0  2  0  0  0  0  0  0  0  0  0
    4.1789    0.4098   -0.7597 C   0  0  0  0  0  0  0  0  0  0  0  0
    4.6460   -0.2865    0.3703 C   0  0  0  0  0  0  0  0  0  0  0  0
    6.0117   -0.5374    0.5294 C   0  0  0  0  0  0  0  0  0  0  0  0
    6.9245   -0.0792   -0.4247 C   0  0  0  0  0  0  0  0  0  0  0  0
    6.4726    0.6317   -1.5399 C   0  0  0  0  0  0  0  0  0  0  0  0
    5.1059    0.8778   -1.7083 C   0  0  0  0  0  0  0  0  0  0  0  0
    2.2585    1.8466    0.0084 C   0  0  1  0  0  0  0  0  0  0  0  0
    2.8521    3.0572   -0.3906 O   0  0  0  0  0  0  0  0  0  0  0  0
    0.7606    1.9609   -0.0589 C   0  0  0  0  0  0  0  0  0  0  0  0
    0.2253    3.0874   -0.2436 O   0  0  0  0  0  0  0  0  0  0  0  0
    1.3703   -4.7096   -0.2232 H   0  0  0  0  0  0  0  0  0  0  0  0
    1.5692   -3.4428    1.0520 H   0  0  0  0  0  0  0  0  0  0  0  0
   -0.0484   -4.2272    0.7862 H   0  0  0  0  0  0  0  0  0  0  0  0
   -3.1446   -3.0493    0.0055 H   0  0  0  0  0  0  0  0  0  0  0  0
   -3.8759   -1.4572    1.2989 H   0  0  0  0  0  0  0  0  0  0  0  0
   -3.8297    0.2810    1.4752 H   0  0  0  0  0  0  0  0  0  0  0  0
   -4.2480   -1.1789   -1.2699 H   0  0  0  0  0  0  0  0  0  0  0  0
   -7.2223    0.2813   -1.8273 H   0  0  0  0  0  0  0  0  0  0  0  0
   -5.7697   -0.2661   -2.7428 H   0  0  0  0  0  0  0  0  0  0  0  0
   -6.0696    1.4924   -2.5125 H   0  0  0  0  0  0  0  0  0  0  0  0
   -4.8686    2.2030    0.4927 H   0  0  0  0  0  0  0  0  0  0  0  0
   -6.0858    1.0727    1.2328 H   0  0  0  0  0  0  0  0  0  0  0  0
   -6.5732    2.2013   -0.0785 H   0  0  0  0  0  0  0  0  0  0  0  0
   -1.6080    2.6927    1.1393 H   0  0  0  0  0  0  0  0  0  0  0  0
    2.4959    0.9975   -1.9732 H   0  0  0  0  0  0  0  0  0  0  0  0
    3.9526   -0.6421    1.1228 H   0  0  0  0  0  0  0  0  0  0  0  0
    6.3610   -1.0796    1.3987 H   0  0  0  0  0  0  0  0  0  0  0  0
    7.9820   -0.2695   -0.2965 H   0  0  0  0  0  0  0  0  0  0  0  0
    7.1817    0.9870   -2.2778 H   0  0  0  0  0  0  0  0  0  0  0  0
    4.7721    1.4378   -2.5733 H   0  0  0  0  0  0  0  0  0  0  0  0
    2.5294    1.6137    1.0652 H   0  0  0  0  0  0  0  0  0  0  0  0
    3.7555    3.0820    0.0194 H   0  0  0  0  0  0  0  0  0  0  0  0
  1  2  1  0
  2  3  1  0
  3  4  2  0
  4  5  1  0
  4  6  1  0
  6  7  1  0
  7  8  1  0
  8  9  2  3
  9 10  1  0
  9 11  1  0
  6 12  2  0
 12 13  1  0
 12 14  1  0
 14 15  2  0
 15 16  1  0
 16 17  1  0
 17 18  1  0
 18 19  2  0
 19 20  1  0
 20 21  2  0
 21 22  1  0
 22 23  2  0
 17 24  1  0
 24 25  1  0
 24 26  1  0
 26 27  2  0
 15  3  1  0
 23 18  1  0
 26 14  1  0
  1 28  1  0
  1 29  1  0
  1 30  1  0
  5 31  1  0
  7 32  1  0
  7 33  1  0
  8 34  1  0
 10 35  1  0
 10 36  1  0
 10 37  1  0
 11 38  1  0
 11 39  1  0
 11 40  1  0
 13 41  1  0
 17 42  1  6
 19 43  1  0
 20 44  1  0
 21 45  1  0
 22 46  1  0
 23 47  1  0
 24 48  1  1
 25 49  1  0
M  END

     RDKit          3D

 44 46  0  0  0  0  0  0  0  0999 V2000
    4.6578    0.8192   -1.2963 C   0  0  0  0  0  0  0  0  0  0  0  0
    3.7716    1.2472   -0.1496 C   0  0  0  0  0  0  0  0  0  0  0  0
    4.2872    2.2521    0.8474 C   0  0  0  0  0  0  0  0  0  0  0  0
    2.5212    0.7612    0.0145 C   0  0  0  0  0  0  0  0  0  0  0  0
    1.8553   -0.2285   -0.9116 C   0  0  0  0  0  0  0  0  0  0  0  0
    1.2823   -1.3780   -0.1149 C   0  0  0  0  0  0  0  0  0  0  0  0
    2.1151   -2.4428    0.2735 C   0  0  0  0  0  0  0  0  0  0  0  0
    3.4685   -2.4336   -0.0657 O   0  0  0  0  0  0  0  0  0  0  0  0
    1.5890   -3.5147    1.0011 C   0  0  0  0  0  0  0  0  0  0  0  0
    0.2335   -3.5507    1.3497 C   0  0  0  0  0  0  0  0  0  0  0  0
   -0.2578   -4.6445    2.0638 O   0  0  0  0  0  0  0  0  0  0  0  0
   -0.6146   -2.4814    0.9809 C   0  0  0  0  0  0  0  0  0  0  0  0
   -1.9922   -2.4577    1.2829 C   0  0  0  0  0  0  0  0  0  0  0  0
   -2.5389   -3.4192    1.8893 O   0  0  0  0  0  0  0  0  0  0  0  0
   -2.7711   -1.3574    0.8958 C   0  0  0  0  0  0  0  0  0  0  0  0
   -4.1493   -1.3518    1.1212 O   0  0  0  0  0  0  0  0  0  0  0  0
   -2.1451   -0.2750    0.2467 C   0  0  0  0  0  0  0  0  0  0  0  0
   -2.8778    0.9539   -0.1530 C   0  0  0  0  0  0  0  0  0  0  0  0
   -2.4881    1.6384   -1.3197 C   0  0  0  0  0  0  0  0  0  0  0  0
   -3.1467    2.8065   -1.7127 C   0  0  0  0  0  0  0  0  0  0  0  0
   -4.2022    3.3098   -0.9474 C   0  0  0  0  0  0  0  0  0  0  0  0
   -4.8672    4.4600   -1.3639 O   0  0  0  0  0  0  0  0  0  0  0  0
   -4.5802    2.6541    0.2316 C   0  0  0  0  0  0  0  0  0  0  0  0
   -3.9127    1.4947    0.6366 C   0  0  0  0  0  0  0  0  0  0  0  0
   -0.8503   -0.3492   -0.0482 O   0  0  0  0  0  0  0  0  0  0  0  0
   -0.0756   -1.3834    0.2679 C   0  0  0  0  0  0  0  0  0  0  0  0
    5.6341    1.3456   -1.2755 H   0  0  0  0  0  0  0  0  0  0  0  0
    4.1689    1.0516   -2.2658 H   0  0  0  0  0  0  0  0  0  0  0  0
    4.8605   -0.2691   -1.2334 H   0  0  0  0  0  0  0  0  0  0  0  0
    4.2454    1.8252    1.8726 H   0  0  0  0  0  0  0  0  0  0  0  0
    3.6609    3.1696    0.8107 H   0  0  0  0  0  0  0  0  0  0  0  0
    5.3393    2.5383    0.6363 H   0  0  0  0  0  0  0  0  0  0  0  0
    1.9243    1.1293    0.8456 H   0  0  0  0  0  0  0  0  0  0  0  0
    2.5458   -0.6320   -1.6808 H   0  0  0  0  0  0  0  0  0  0  0  0
    1.0585    0.3013   -1.4743 H   0  0  0  0  0  0  0  0  0  0  0  0
    4.0878   -3.1900    0.2005 H   0  0  0  0  0  0  0  0  0  0  0  0
    2.2396   -4.3300    1.2931 H   0  0  0  0  0  0  0  0  0  0  0  0
    0.3398   -5.4167    2.3358 H   0  0  0  0  0  0  0  0  0  0  0  0
   -4.6287   -2.1213    1.5727 H   0  0  0  0  0  0  0  0  0  0  0  0
   -1.6809    1.2615   -1.9374 H   0  0  0  0  0  0  0  0  0  0  0  0
   -2.8435    3.3153   -2.6188 H   0  0  0  0  0  0  0  0  0  0  0  0
   -5.6939    4.7934   -0.8836 H   0  0  0  0  0  0  0  0  0  0  0  0
   -5.3788    3.0534    0.8433 H   0  0  0  0  0  0  0  0  0  0  0  0
   -4.1909    1.0453    1.5811 H   0  0  0  0  0  0  0  0  0  0  0  0
  1  2  1  0
  2  3  1  0
  2  4  2  3
  4  5  1  0
  5  6  1  0
  6  7  2  0
  7  8  1  0
  7  9  1  0
  9 10  2  0
 10 11  1  0
 10 12  1  0
 12 13  1  0
 13 14  2  0
 13 15  1  0
 15 16  1  0
 15 17  2  0
 17 18  1  0
 18 19  2  0
 19 20  1  0
 20 21  2  0
 21 22  1  0
 21 23  1  0
 23 24  2  0
 17 25  1  0
 25 26  1  0
 26  6  1  0
 26 12  2  0
 24 18  1  0
  1 27  1  0
  1 28  1  0
  1 29  1  0
  3 30  1  0
  3 31  1  0
  3 32  1  0
  4 33  1  0
  5 34  1  0
  5 35  1  0
  8 36  1  0
  9 37  1  0
 11 38  1  0
 16 39  1  0
 19 40  1  0
 20 41  1  0
 22 42  1  0
 23 43  1  0
 24 44  1  0
M  END

     RDKit          3D

 33 35  0  0  0  0  0  0  0  0999 V2000
   -3.2618    2.8923    1.3939 C   0  0  0  0  0  0  0  0  0  0  0  0
   -3.3358    1.6434    0.7108 O   0  0  0  0  0  0  0  0  0  0  0  0
   -2.2229    0.9148    0.2600 C   0  0  0  0  0  0  0  0  0  0  0  0
   -0.9114    1.3876    0.4146 C   0  0  0  0  0  0  0  0  0  0  0  0
    0.1754    0.6183   -0.0005 C   0  0  0  0  0  0  0  0  0  0  0  0
    1.4000    1.0900    0.2024 O   0  0  0  0  0  0  0  0  0  0  0  0
    2.4995    0.4250   -0.1265 C   0  0  0  0  0  0  0  0  0  0  0  0
    3.7625    0.9980    0.1114 C   0  0  0  0  0  0  0  0  0  0  0  0
    3.8852    2.2678    0.6751 O   0  0  0  0  0  0  0  0  0  0  0  0
    4.9210    0.2887   -0.2193 C   0  0  0  0  0  0  0  0  0  0  0  0
    4.8287   -0.9868   -0.7809 C   0  0  0  0  0  0  0  0  0  0  0  0
    3.5794   -1.5619   -1.0253 C   0  0  0  0  0  0  0  0  0  0  0  0
    2.4018   -0.8598   -0.7041 C   0  0  0  0  0  0  0  0  0  0  0  0
    1.1245   -1.4025   -0.9338 C   0  0  0  0  0  0  0  0  0  0  0  0
    1.0270   -2.5770   -1.3814 O   0  0  0  0  0  0  0  0  0  0  0  0
   -0.0276   -0.6398   -0.6200 C   0  0  0  0  0  0  0  0  0  0  0  0
   -1.3625   -1.0739   -0.8610 C   0  0  0  0  0  0  0  0  0  0  0  0
   -1.6599   -2.1979   -1.6380 O   0  0  0  0  0  0  0  0  0  0  0  0
   -2.4441   -0.3211   -0.3596 C   0  0  0  0  0  0  0  0  0  0  0  0
   -3.7670   -0.7578   -0.5087 O   0  0  0  0  0  0  0  0  0  0  0  0
   -4.2275   -2.0188   -0.0230 C   0  0  0  0  0  0  0  0  0  0  0  0
   -4.2880    3.2334    1.6393 H   0  0  0  0  0  0  0  0  0  0  0  0
   -2.7804    3.6561    0.7458 H   0  0  0  0  0  0  0  0  0  0  0  0
   -2.6930    2.7767    2.3418 H   0  0  0  0  0  0  0  0  0  0  0  0
   -0.7204    2.3491    0.8740 H   0  0  0  0  0  0  0  0  0  0  0  0
    3.0768    2.8256    0.9258 H   0  0  0  0  0  0  0  0  0  0  0  0
    5.8957    0.7262   -0.0405 H   0  0  0  0  0  0  0  0  0  0  0  0
    5.7303   -1.5314   -1.0271 H   0  0  0  0  0  0  0  0  0  0  0  0
    3.5384   -2.5495   -1.4669 H   0  0  0  0  0  0  0  0  0  0  0  0
   -1.0544   -2.5641   -2.3596 H   0  0  0  0  0  0  0  0  0  0  0  0
   -3.7681   -2.8627   -0.5870 H   0  0  0  0  0  0  0  0  0  0  0  0
   -3.9891   -2.1172    1.0643 H   0  0  0  0  0  0  0  0  0  0  0  0
   -5.3321   -2.0707   -0.1539 H   0  0  0  0  0  0  0  0  0  0  0  0
  1  2  1  0
  2  3  1  0
  3  4  2  0
  4  5  1  0
  5  6  1  0
  6  7  1  0
  7  8  2  0
  8  9  1  0
  8 10  1  0
 10 11  2  0
 11 12  1  0
 12 13  2  0
 13 14  1  0
 14 15  2  0
 14 16  1  0
 16 17  1  0
 17 18  1  0
 17 19  2  0
 19 20  1  0
 20 21  1  0
 19  3  1  0
 16  5  2  0
 13  7  1  0
  1 22  1  0
  1 23  1  0
  1 24  1  0
  4 25  1  0
  9 26  1  0
 10 27  1  0
 11 28  1  0
 12 29  1  0
 18 30  1  0
 21 31  1  0
 21 32  1  0
 21 33  1  0
M  END

     RDKit          3D

 45 46  0  0  0  0  0  0  0  0999 V2000
   -1.8890   -2.6795   -0.3289 C   0  0  0  0  0  0  0  0  0  0  0  0
   -1.6095   -1.3381   -1.0495 C   0  0  2  0  0  0  0  0  0  0  0  0
   -0.3586   -1.4345   -1.9684 C   0  0  0  0  0  0  0  0  0  0  0  0
    0.8845   -0.6423   -1.5200 C   0  0  0  0  0  0  0  0  0  0  0  0
    1.0972   -0.5593    0.0129 C   0  0  1  0  0  0  0  0  0  0  0  0
    1.5428   -1.9593    0.5155 C   0  0  0  0  0  0  0  0  0  0  0  0
    2.2980    0.3764    0.3242 C   0  0  0  0  0  0  0  0  0  0  0  0
    3.5034    0.4691   -0.5968 C   0  0  0  0  0  0  0  0  0  0  0  0
    3.3112    1.4812   -1.5473 O   0  0  0  0  0  0  0  0  0  0  0  0
    2.3601    1.0553    1.4877 C   0  0  0  0  0  0  0  0  0  0  0  0
    1.2187    1.0428    2.4478 C   0  0  0  0  0  0  0  0  0  0  0  0
   -0.0661    1.1554    1.6454 C   0  0  0  0  0  0  0  0  0  0  0  0
   -0.2532   -0.0996    0.7552 C   0  0  1  0  0  0  0  0  0  0  0  0
   -1.5936   -0.0746   -0.1094 C   0  0  2  0  0  0  0  0  0  0  0  0
   -2.8237   -0.1580    0.8463 C   0  0  0  0  0  0  0  0  0  0  0  0
   -1.8082    1.1881   -1.0421 C   0  0  0  0  0  0  0  0  0  0  0  0
   -1.9640    2.5425   -0.4040 C   0  0  0  0  0  0  0  0  0  0  0  0
   -2.9722    2.8130    0.3037 O   0  0  0  0  0  0  0  0  0  0  0  0
   -1.0221    3.5326   -0.6664 O   0  0  0  0  0  0  0  0  0  0  0  0
   -2.9617   -2.7454   -0.0522 H   0  0  0  0  0  0  0  0  0  0  0  0
   -1.6910   -3.5445   -0.9932 H   0  0  0  0  0  0  0  0  0  0  0  0
   -1.2946   -2.7992    0.5945 H   0  0  0  0  0  0  0  0  0  0  0  0
   -2.4800   -1.2338   -1.7359 H   0  0  0  0  0  0  0  0  0  0  0  0
   -0.6345   -1.0611   -2.9776 H   0  0  0  0  0  0  0  0  0  0  0  0
   -0.0630   -2.4929   -2.1260 H   0  0  0  0  0  0  0  0  0  0  0  0
    1.7552   -1.1298   -2.0056 H   0  0  0  0  0  0  0  0  0  0  0  0
    0.8722    0.3781   -1.9489 H   0  0  0  0  0  0  0  0  0  0  0  0
    2.5499   -2.2209    0.1299 H   0  0  0  0  0  0  0  0  0  0  0  0
    1.5910   -1.9842    1.6226 H   0  0  0  0  0  0  0  0  0  0  0  0
    0.8666   -2.7605    0.1756 H   0  0  0  0  0  0  0  0  0  0  0  0
    3.6753   -0.4918   -1.1215 H   0  0  0  0  0  0  0  0  0  0  0  0
    4.4377    0.6585   -0.0197 H   0  0  0  0  0  0  0  0  0  0  0  0
    3.3963    2.3449   -1.0646 H   0  0  0  0  0  0  0  0  0  0  0  0
    3.2102    1.6950    1.7067 H   0  0  0  0  0  0  0  0  0  0  0  0
    1.2305    0.1040    3.0405 H   0  0  0  0  0  0  0  0  0  0  0  0
    1.3081    1.8996    3.1474 H   0  0  0  0  0  0  0  0  0  0  0  0
   -0.9119    1.2736    2.3528 H   0  0  0  0  0  0  0  0  0  0  0  0
    0.0206    2.0682    1.0319 H   0  0  0  0  0  0  0  0  0  0  0  0
   -0.4460   -0.8866    1.5164 H   0  0  0  0  0  0  0  0  0  0  0  0
   -2.9149    0.7261    1.5005 H   0  0  0  0  0  0  0  0  0  0  0  0
   -2.7580   -1.0247    1.5354 H   0  0  0  0  0  0  0  0  0  0  0  0
   -3.7660   -0.2472    0.2646 H   0  0  0  0  0  0  0  0  0  0  0  0
   -1.0135    1.2806   -1.7962 H   0  0  0  0  0  0  0  0  0  0  0  0
   -2.7345    1.0305   -1.6391 H   0  0  0  0  0  0  0  0  0  0  0  0
   -1.0995    4.4521   -0.2445 H   0  0  0  0  0  0  0  0  0  0  0  0
  1  2  1  0
  2  3  1  0
  3  4  1  0
  4  5  1  0
  5  6  1  1
  5  7  1  0
  7  8  1  0
  8  9  1  0
  7 10  2  0
 10 11  1  0
 11 12  1  0
 12 13  1  0
 13 14  1  0
 14 15  1  1
 14 16  1  0
 16 17  1  0
 17 18  2  0
 17 19  1  0
 14  2  1  0
 13  5  1  0
  1 20  1  0
  1 21  1  0
  1 22  1  0
  2 23  1  6
  3 24  1  0
  3 25  1  0
  4 26  1  0
  4 27  1  0
  6 28  1  0
  6 29  1  0
  6 30  1  0
  8 31  1  0
  8 32  1  0
  9 33  1  0
 10 34  1  0
 11 35  1  0
 11 36  1  0
 12 37  1  0
 12 38  1  0
 13 39  1  1
 15 40  1  0
 15 41  1  0
 15 42  1  0
 16 43  1  0
 16 44  1  0
 19 45  1  0
M  END

     RDKit          3D

 31 33  0  0  0  0  0  0  0  0999 V2000
   -1.0361   -0.8253   -2.7233 O   0  0  0  0  0  0  0  0  0  0  0  0
   -1.1268   -0.5912   -1.4912 C   0  0  0  0  0  0  0  0  0  0  0  0
    0.0292   -0.6956   -0.7172 C   0  0  0  0  0  0  0  0  0  0  0  0
   -0.0229   -0.3882    0.6471 C   0  0  0  0  0  0  0  0  0  0  0  0
    1.1057   -0.5028    1.4713 O   0  0  0  0  0  0  0  0  0  0  0  0
    2.4298   -0.2838    1.0645 C   0  0  0  0  0  0  0  0  0  0  0  0
    2.7562    0.6760    0.0891 C   0  0  0  0  0  0  0  0  0  0  0  0
    4.0887    0.8784   -0.2805 C   0  0  0  0  0  0  0  0  0  0  0  0
    5.1081    0.1309    0.3254 C   0  0  0  0  0  0  0  0  0  0  0  0
    6.4383    0.3194   -0.0395 O   0  0  0  0  0  0  0  0  0  0  0  0
    4.7877   -0.8110    1.3089 C   0  0  0  0  0  0  0  0  0  0  0  0
    3.4549   -1.0123    1.6810 C   0  0  0  0  0  0  0  0  0  0  0  0
   -1.1721   -0.0148    1.1935 O   0  0  0  0  0  0  0  0  0  0  0  0
   -2.3039    0.0961    0.5055 C   0  0  0  0  0  0  0  0  0  0  0  0
   -3.4504    0.5274    1.1761 C   0  0  0  0  0  0  0  0  0  0  0  0
   -4.6568    0.6615    0.4967 C   0  0  0  0  0  0  0  0  0  0  0  0
   -5.7852    1.1045    1.1825 O   0  0  0  0  0  0  0  0  0  0  0  0
   -4.7276    0.3466   -0.8624 C   0  0  0  0  0  0  0  0  0  0  0  0
   -3.6028   -0.1081   -1.5608 C   0  0  0  0  0  0  0  0  0  0  0  0
   -3.8056   -0.4514   -2.9020 O   0  0  0  0  0  0  0  0  0  0  0  0
   -2.3494   -0.2121   -0.8826 C   0  0  0  0  0  0  0  0  0  0  0  0
    0.9554   -1.0243   -1.1735 H   0  0  0  0  0  0  0  0  0  0  0  0
    1.9844    1.2783   -0.3713 H   0  0  0  0  0  0  0  0  0  0  0  0
    4.3286    1.6181   -1.0341 H   0  0  0  0  0  0  0  0  0  0  0  0
    6.7005    0.9830   -0.7595 H   0  0  0  0  0  0  0  0  0  0  0  0
    5.5721   -1.3883    1.7832 H   0  0  0  0  0  0  0  0  0  0  0  0
    3.2161   -1.7420    2.4449 H   0  0  0  0  0  0  0  0  0  0  0  0
   -3.4001    0.7666    2.2316 H   0  0  0  0  0  0  0  0  0  0  0  0
   -6.6845    1.1885    0.7243 H   0  0  0  0  0  0  0  0  0  0  0  0
   -5.6731    0.4383   -1.3820 H   0  0  0  0  0  0  0  0  0  0  0  0
   -3.1584   -0.9625   -3.4804 H   0  0  0  0  0  0  0  0  0  0  0  0
  1  2  2  0
  2  3  1  0
  3  4  2  0
  4  5  1  0
  5  6  1  0
  6  7  2  0
  7  8  1  0
  8  9  2  0
  9 10  1  0
  9 11  1  0
 11 12  2  0
  4 13  1  0
 13 14  1  0
 14 15  2  0
 15 16  1  0
 16 17  1  0
 16 18  2  0
 18 19  1  0
 19 20  1  0
 19 21  2  0
 21  2  1  0
 12  6  1  0
 21 14  1  0
  3 22  1  0
  7 23  1  0
  8 24  1  0
 10 25  1  0
 11 26  1  0
 12 27  1  0
 15 28  1  0
 17 29  1  0
 18 30  1  0
 20 31  1  0
M  END

     RDKit          3D

 26 27  0  0  0  0  0  0  0  0999 V2000
   -3.4857   -1.0717    0.3222 C   0  0  0  0  0  0  0  0  0  0  0  0
   -2.4408   -0.1529    0.0228 O   0  0  0  0  0  0  0  0  0  0  0  0
   -1.0586   -0.4014    0.1013 C   0  0  0  0  0  0  0  0  0  0  0  0
   -0.5181   -1.6020    0.6288 C   0  0  0  0  0  0  0  0  0  0  0  0
   -1.3383   -2.5785    1.1887 O   0  0  0  0  0  0  0  0  0  0  0  0
    0.8644   -1.8205    0.6001 C   0  0  0  0  0  0  0  0  0  0  0  0
    1.7234   -0.8665    0.0613 C   0  0  0  0  0  0  0  0  0  0  0  0
    3.0330   -1.1015    0.0332 O   0  0  0  0  0  0  0  0  0  0  0  0
    3.9076   -0.2291   -0.4595 C   0  0  0  0  0  0  0  0  0  0  0  0
    5.1351   -0.5087   -0.4588 O   0  0  0  0  0  0  0  0  0  0  0  0
    3.4707    0.9939   -0.9745 C   0  0  0  0  0  0  0  0  0  0  0  0
    2.1067    1.2815   -0.9642 C   0  0  0  0  0  0  0  0  0  0  0  0
    1.2032    0.3429   -0.4441 C   0  0  0  0  0  0  0  0  0  0  0  0
   -0.1828    0.5881   -0.4014 C   0  0  0  0  0  0  0  0  0  0  0  0
   -0.6696    1.8096   -0.8913 O   0  0  0  0  0  0  0  0  0  0  0  0
   -1.5065    2.6804   -0.1360 C   0  0  0  0  0  0  0  0  0  0  0  0
   -3.3709   -1.9968   -0.2818 H   0  0  0  0  0  0  0  0  0  0  0  0
   -3.4945   -1.3037    1.4076 H   0  0  0  0  0  0  0  0  0  0  0  0
   -4.4577   -0.6046    0.0622 H   0  0  0  0  0  0  0  0  0  0  0  0
   -0.9615   -3.4347    1.5774 H   0  0  0  0  0  0  0  0  0  0  0  0
    1.2746   -2.7407    0.9979 H   0  0  0  0  0  0  0  0  0  0  0  0
    4.1763    1.7112   -1.3750 H   0  0  0  0  0  0  0  0  0  0  0  0
    1.7669    2.2301   -1.3608 H   0  0  0  0  0  0  0  0  0  0  0  0
   -1.0533    2.8719    0.8613 H   0  0  0  0  0  0  0  0  0  0  0  0
   -1.6007    3.6459   -0.6741 H   0  0  0  0  0  0  0  0  0  0  0  0
   -2.5231    2.2577   -0.0128 H   0  0  0  0  0  0  0  0  0  0  0  0
  1  2  1  0
  2  3  1  0
  3  4  2  0
  4  5  1  0
  4  6  1  0
  6  7  2  0
  7  8  1  0
  8  9  1  0
  9 10  2  0
  9 11  1  0
 11 12  2  0
 12 13  1  0
 13 14  2  0
 14 15  1  0
 15 16  1  0
 14  3  1  0
 13  7  1  0
  1 17  1  0
  1 18  1  0
  1 19  1  0
  5 20  1  0
  6 21  1  0
 11 22  1  0
 12 23  1  0
 16 24  1  0
 16 25  1  0
 16 26  1  0
M  END

     RDKit          3D

 36 38  0  0  0  0  0  0  0  0999 V2000
   -4.4365   -1.6084    2.3594 C   0  0  0  0  0  0  0  0  0  0  0  0
   -4.3592   -0.7987    1.1904 O   0  0  0  0  0  0  0  0  0  0  0  0
   -3.1626   -0.3911    0.5747 C   0  0  0  0  0  0  0  0  0  0  0  0
   -1.9094   -0.7616    1.0861 C   0  0  0  0  0  0  0  0  0  0  0  0
   -0.7247   -0.3939    0.4314 C   0  0  0  0  0  0  0  0  0  0  0  0
   -0.7852    0.3381   -0.7734 C   0  0  0  0  0  0  0  0  0  0  0  0
   -2.0451    0.7972   -1.2421 C   0  0  0  0  0  0  0  0  0  0  0  0
   -2.1551    1.6569   -2.3400 O   0  0  0  0  0  0  0  0  0  0  0  0
   -3.2285    0.4167   -0.5749 C   0  0  0  0  0  0  0  0  0  0  0  0
   -4.5722    0.8380   -1.1183 C   0  0  0  0  0  0  0  0  0  0  0  0
    0.4772    0.5431   -1.5388 C   0  0  0  0  0  0  0  0  0  0  0  0
    0.4361    0.7779   -2.7761 O   0  0  0  0  0  0  0  0  0  0  0  0
    1.7931    0.3512   -0.8750 C   0  0  0  0  0  0  0  0  0  0  0  0
    2.9960    0.7884   -1.4754 C   0  0  0  0  0  0  0  0  0  0  0  0
    2.9783    1.4550   -2.7009 O   0  0  0  0  0  0  0  0  0  0  0  0
    4.2215    0.5607   -0.8362 C   0  0  0  0  0  0  0  0  0  0  0  0
    4.2693   -0.0842    0.4043 C   0  0  0  0  0  0  0  0  0  0  0  0
    5.5896   -0.3565    1.0632 C   0  0  0  0  0  0  0  0  0  0  0  0
    3.0817   -0.5311    0.9952 C   0  0  0  0  0  0  0  0  0  0  0  0
    1.8422   -0.3102    0.3697 C   0  0  0  0  0  0  0  0  0  0  0  0
    0.5889   -0.7758    1.0056 C   0  0  0  0  0  0  0  0  0  0  0  0
    0.6399   -1.4838    2.0494 O   0  0  0  0  0  0  0  0  0  0  0  0
   -3.9550   -1.0895    3.2155 H   0  0  0  0  0  0  0  0  0  0  0  0
   -5.5030   -1.7844    2.6079 H   0  0  0  0  0  0  0  0  0  0  0  0
   -3.9477   -2.5898    2.1795 H   0  0  0  0  0  0  0  0  0  0  0  0
   -1.8518   -1.3474    1.9933 H   0  0  0  0  0  0  0  0  0  0  0  0
   -1.3918    2.2191   -2.6895 H   0  0  0  0  0  0  0  0  0  0  0  0
   -5.3230    0.9385   -0.3062 H   0  0  0  0  0  0  0  0  0  0  0  0
   -4.9289    0.0814   -1.8485 H   0  0  0  0  0  0  0  0  0  0  0  0
   -4.5139    1.8261   -1.6197 H   0  0  0  0  0  0  0  0  0  0  0  0
    3.8303    1.7753   -3.1464 H   0  0  0  0  0  0  0  0  0  0  0  0
    5.1390    0.8913   -1.3080 H   0  0  0  0  0  0  0  0  0  0  0  0
    5.9657   -1.3495    0.7394 H   0  0  0  0  0  0  0  0  0  0  0  0
    6.3339    0.4214    0.7891 H   0  0  0  0  0  0  0  0  0  0  0  0
    5.4839   -0.3523    2.1687 H   0  0  0  0  0  0  0  0  0  0  0  0
    3.1270   -1.0470    1.9466 H   0  0  0  0  0  0  0  0  0  0  0  0
  1  2  1  0
  2  3  1  0
  3  4  2  0
  4  5  1  0
  5  6  2  0
  6  7  1  0
  7  8  1  0
  7  9  2  0
  9 10  1  0
  6 11  1  0
 11 12  2  0
 11 13  1  0
 13 14  2  0
 14 15  1  0
 14 16  1  0
 16 17  2  0
 17 18  1  0
 17 19  1  0
 19 20  2  0
 20 21  1  0
 21 22  2  0
  9  3  1  0
 20 13  1  0
 21  5  1  0
  1 23  1  0
  1 24  1  0
  1 25  1  0
  4 26  1  0
  8 27  1  0
 10 28  1  0
 10 29  1  0
 10 30  1  0
 15 31  1  0
 16 32  1  0
 18 33  1  0
 18 34  1  0
 18 35  1  0
 19 36  1  0
M  END

     RDKit          3D

 33 35  0  0  0  0  0  0  0  0999 V2000
   -6.1818    0.1535   -0.8609 C   0  0  0  0  0  0  0  0  0  0  0  0
   -5.0780   -0.7255   -1.0533 O   0  0  0  0  0  0  0  0  0  0  0  0
   -3.7580   -0.4370   -0.6738 C   0  0  0  0  0  0  0  0  0  0  0  0
   -3.4013    0.7797   -0.0678 C   0  0  0  0  0  0  0  0  0  0  0  0
   -2.0757    1.0266    0.2993 C   0  0  0  0  0  0  0  0  0  0  0  0
   -1.0784    0.0616    0.0738 C   0  0  0  0  0  0  0  0  0  0  0  0
    0.3402    0.2999    0.4449 C   0  0  0  0  0  0  0  0  0  0  0  0
    0.6980    1.1784    1.4844 C   0  0  0  0  0  0  0  0  0  0  0  0
    2.0469    1.3638    1.7901 C   0  0  0  0  0  0  0  0  0  0  0  0
    2.3704    2.1474    2.7263 O   0  0  0  0  0  0  0  0  0  0  0  0
    3.0216    0.6677    1.0581 C   0  0  0  0  0  0  0  0  0  0  0  0
    4.3968    0.8065    1.3160 C   0  0  0  0  0  0  0  0  0  0  0  0
    5.3263    0.0795    0.5680 C   0  0  0  0  0  0  0  0  0  0  0  0
    4.8950   -0.7926   -0.4399 C   0  0  0  0  0  0  0  0  0  0  0  0
    5.8154   -1.5219   -1.1869 O   0  0  0  0  0  0  0  0  0  0  0  0
    3.5287   -0.9340   -0.7019 C   0  0  0  0  0  0  0  0  0  0  0  0
    2.5902   -0.2084    0.0382 C   0  0  0  0  0  0  0  0  0  0  0  0
    1.2942   -0.3517   -0.2207 O   0  0  0  0  0  0  0  0  0  0  0  0
   -1.4378   -1.1467   -0.5468 C   0  0  0  0  0  0  0  0  0  0  0  0
   -2.7674   -1.3969   -0.9137 C   0  0  0  0  0  0  0  0  0  0  0  0
   -3.1130   -2.6020   -1.5218 O   0  0  0  0  0  0  0  0  0  0  0  0
   -6.3207    0.3588    0.2201 H   0  0  0  0  0  0  0  0  0  0  0  0
   -6.0168    1.1006   -1.4147 H   0  0  0  0  0  0  0  0  0  0  0  0
   -7.1014   -0.3258   -1.2506 H   0  0  0  0  0  0  0  0  0  0  0  0
   -4.1412    1.5431    0.1194 H   0  0  0  0  0  0  0  0  0  0  0  0
   -1.8372    1.9834    0.7378 H   0  0  0  0  0  0  0  0  0  0  0  0
   -0.0525    1.6932    2.0741 H   0  0  0  0  0  0  0  0  0  0  0  0
    4.7538    1.4707    2.0929 H   0  0  0  0  0  0  0  0  0  0  0  0
    6.3825    0.1937    0.7737 H   0  0  0  0  0  0  0  0  0  0  0  0
    6.8130   -1.4389   -1.0279 H   0  0  0  0  0  0  0  0  0  0  0  0
    3.1969   -1.6094   -1.4795 H   0  0  0  0  0  0  0  0  0  0  0  0
   -0.6883   -1.9042   -0.7385 H   0  0  0  0  0  0  0  0  0  0  0  0
   -2.4203   -3.3117   -1.7181 H   0  0  0  0  0  0  0  0  0  0  0  0
  1  2  1  0
  2  3  1  0
  3  4  2  0
  4  5  1  0
  5  6  2  0
  6  7  1  0
  7  8  2  0
  8  9  1  0
  9 10  2  0
  9 11  1  0
 11 12  2  0
 12 13  1  0
 13 14  2  0
 14 15  1  0
 14 16  1  0
 16 17  2  0
 17 18  1  0
  6 19  1  0
 19 20  2  0
 20 21  1  0
 20  3  1  0
 18  7  1  0
 17 11  1  0
  1 22  1  0
  1 23  1  0
  1 24  1  0
  4 25  1  0
  5 26  1  0
  8 27  1  0
 12 28  1  0
 13 29  1  0
 15 30  1  0
 16 31  1  0
 19 32  1  0
 21 33  1  0
M  END

     RDKit          3D

 46 48  0  0  0  0  0  0  0  0999 V2000
    2.0125    4.5395    0.7657 C   0  0  0  0  0  0  0  0  0  0  0  0
    2.3567    3.2268    0.3319 O   0  0  0  0  0  0  0  0  0  0  0  0
    1.4415    2.1786    0.1219 C   0  0  0  0  0  0  0  0  0  0  0  0
    0.0613    2.3724    0.2875 C   0  0  0  0  0  0  0  0  0  0  0  0
   -0.8469    1.3359    0.0442 C   0  0  0  0  0  0  0  0  0  0  0  0
   -0.3755    0.0750   -0.3663 C   0  0  0  0  0  0  0  0  0  0  0  0
    1.0214   -0.1649   -0.4351 C   0  0  0  0  0  0  0  0  0  0  0  0
    1.5055   -1.4600   -0.6443 O   0  0  0  0  0  0  0  0  0  0  0  0
    1.9361    0.9102   -0.2543 C   0  0  0  0  0  0  0  0  0  0  0  0
    3.4522    0.7792   -0.3866 C   0  0  0  0  0  0  0  0  0  0  0  0
    3.9642   -0.4980   -1.0112 C   0  0  0  0  0  0  0  0  0  0  0  0
    4.4500   -1.5461   -0.3040 C   0  0  0  0  0  0  0  0  0  0  0  0
    4.6025   -1.4988    1.1948 C   0  0  0  0  0  0  0  0  0  0  0  0
    4.8799   -2.8003   -1.0206 C   0  0  0  0  0  0  0  0  0  0  0  0
   -1.3757   -0.9420   -0.7867 C   0  0  0  0  0  0  0  0  0  0  0  0
   -1.0823   -1.7729   -1.6871 O   0  0  0  0  0  0  0  0  0  0  0  0
   -2.7762   -0.8415   -0.3034 C   0  0  0  0  0  0  0  0  0  0  0  0
   -3.6693   -1.9424   -0.3196 C   0  0  0  0  0  0  0  0  0  0  0  0
   -3.2516   -3.2440   -0.5990 O   0  0  0  0  0  0  0  0  0  0  0  0
   -5.0205   -1.7471   -0.0162 C   0  0  0  0  0  0  0  0  0  0  0  0
   -5.4993   -0.4819    0.3395 C   0  0  0  0  0  0  0  0  0  0  0  0
   -6.9458   -0.2974    0.6939 C   0  0  0  0  0  0  0  0  0  0  0  0
   -4.6041    0.5906    0.4390 C   0  0  0  0  0  0  0  0  0  0  0  0
   -3.2454    0.4208    0.1207 C   0  0  0  0  0  0  0  0  0  0  0  0
   -2.3023    1.5592    0.2283 C   0  0  0  0  0  0  0  0  0  0  0  0
   -2.7354    2.7129    0.5030 O   0  0  0  0  0  0  0  0  0  0  0  0
    1.5510    4.5046    1.7762 H   0  0  0  0  0  0  0  0  0  0  0  0
    2.9344    5.1510    0.8214 H   0  0  0  0  0  0  0  0  0  0  0  0
    1.3210    5.0136    0.0383 H   0  0  0  0  0  0  0  0  0  0  0  0
   -0.3148    3.3394    0.5928 H   0  0  0  0  0  0  0  0  0  0  0  0
    0.9447   -2.2965   -0.5519 H   0  0  0  0  0  0  0  0  0  0  0  0
    3.9177    0.9627    0.6059 H   0  0  0  0  0  0  0  0  0  0  0  0
    3.8114    1.6039   -1.0412 H   0  0  0  0  0  0  0  0  0  0  0  0
    3.8704   -0.5835   -2.0914 H   0  0  0  0  0  0  0  0  0  0  0  0
    3.6214   -1.2898    1.6696 H   0  0  0  0  0  0  0  0  0  0  0  0
    5.3326   -0.7106    1.4761 H   0  0  0  0  0  0  0  0  0  0  0  0
    4.9787   -2.4692    1.5842 H   0  0  0  0  0  0  0  0  0  0  0  0
    5.9860   -2.8929   -0.9748 H   0  0  0  0  0  0  0  0  0  0  0  0
    4.5662   -2.7978   -2.0878 H   0  0  0  0  0  0  0  0  0  0  0  0
    4.4274   -3.6916   -0.5320 H   0  0  0  0  0  0  0  0  0  0  0  0
   -2.2796   -3.5204   -0.6253 H   0  0  0  0  0  0  0  0  0  0  0  0
   -5.6990   -2.5916   -0.0447 H   0  0  0  0  0  0  0  0  0  0  0  0
   -7.0891   -0.4749    1.7813 H   0  0  0  0  0  0  0  0  0  0  0  0
   -7.2805    0.7333    0.4428 H   0  0  0  0  0  0  0  0  0  0  0  0
   -7.5801   -1.0119    0.1259 H   0  0  0  0  0  0  0  0  0  0  0  0
   -4.9733    1.5579    0.7584 H   0  0  0  0  0  0  0  0  0  0  0  0
  1  2  1  0
  2  3  1  0
  3  4  2  0
  4  5  1  0
  5  6  2  0
  6  7  1  0
  7  8  1  0
  7  9  2  0
  9 10  1  0
 10 11  1  0
 11 12  2  3
 12 13  1  0
 12 14  1  0
  6 15  1  0
 15 16  2  0
 15 17  1  0
 17 18  2  0
 18 19  1  0
 18 20  1  0
 20 21  2  0
 21 22  1  0
 21 23  1  0
 23 24  2  0
 24 25  1  0
 25 26  2  0
  9  3  1  0
 24 17  1  0
 25  5  1  0
  1 27  1  0
  1 28  1  0
  1 29  1  0
  4 30  1  0
  8 31  1  0
 10 32  1  0
 10 33  1  0
 11 34  1  0
 13 35  1  0
 13 36  1  0
 13 37  1  0
 14 38  1  0
 14 39  1  0
 14 40  1  0
 19 41  1  0
 20 42  1  0
 22 43  1  0
 22 44  1  0
 22 45  1  0
 23 46  1  0
M  END

     RDKit          3D

 39 41  0  0  0  0  0  0  0  0999 V2000
   -5.3179   -0.9244   -0.3515 C   0  0  0  0  0  0  0  0  0  0  0  0
   -4.5714    0.3834   -0.2742 C   0  0  0  0  0  0  0  0  0  0  0  0
   -5.2583    1.6193   -0.7957 C   0  0  0  0  0  0  0  0  0  0  0  0
   -3.3283    0.4755    0.2516 C   0  0  0  0  0  0  0  0  0  0  0  0
   -2.5568   -0.6826    0.8404 C   0  0  0  0  0  0  0  0  0  0  0  0
   -1.1351   -0.6787    0.3202 C   0  0  0  0  0  0  0  0  0  0  0  0
   -0.8168   -1.4684   -0.8037 C   0  0  0  0  0  0  0  0  0  0  0  0
   -1.8062   -2.2212   -1.4384 O   0  0  0  0  0  0  0  0  0  0  0  0
    0.4905   -1.5031   -1.2922 C   0  0  0  0  0  0  0  0  0  0  0  0
    1.4955   -0.7498   -0.6906 C   0  0  0  0  0  0  0  0  0  0  0  0
    2.7287   -0.8219   -1.1791 O   0  0  0  0  0  0  0  0  0  0  0  0
    3.7475   -0.1351   -0.6773 C   0  0  0  0  0  0  0  0  0  0  0  0
    5.0216   -0.2700   -1.2468 C   0  0  0  0  0  0  0  0  0  0  0  0
    5.2081   -1.1261   -2.3308 O   0  0  0  0  0  0  0  0  0  0  0  0
    6.1003    0.4546   -0.7228 C   0  0  0  0  0  0  0  0  0  0  0  0
    5.9106    1.3108    0.3639 C   0  0  0  0  0  0  0  0  0  0  0  0
    4.6444    1.4494    0.9380 C   0  0  0  0  0  0  0  0  0  0  0  0
    3.5510    0.7267    0.4239 C   0  0  0  0  0  0  0  0  0  0  0  0
    2.2611    0.8323    0.9744 C   0  0  0  0  0  0  0  0  0  0  0  0
    2.0645    1.5942    1.9613 O   0  0  0  0  0  0  0  0  0  0  0  0
    1.2006    0.0796    0.4164 C   0  0  0  0  0  0  0  0  0  0  0  0
   -0.1279    0.1302    0.9129 C   0  0  0  0  0  0  0  0  0  0  0  0
   -0.4261    0.9894    1.9774 O   0  0  0  0  0  0  0  0  0  0  0  0
   -4.7661   -1.6388   -0.9981 H   0  0  0  0  0  0  0  0  0  0  0  0
   -6.3290   -0.7781   -0.7874 H   0  0  0  0  0  0  0  0  0  0  0  0
   -5.4408   -1.3533    0.6651 H   0  0  0  0  0  0  0  0  0  0  0  0
   -4.6138    2.5218   -0.7257 H   0  0  0  0  0  0  0  0  0  0  0  0
   -5.5317    1.4692   -1.8612 H   0  0  0  0  0  0  0  0  0  0  0  0
   -6.1825    1.8031   -0.2089 H   0  0  0  0  0  0  0  0  0  0  0  0
   -2.8550    1.4525    0.3083 H   0  0  0  0  0  0  0  0  0  0  0  0
   -3.0322   -1.6595    0.6220 H   0  0  0  0  0  0  0  0  0  0  0  0
   -2.5733   -0.6141    1.9467 H   0  0  0  0  0  0  0  0  0  0  0  0
   -1.6036   -2.7920   -2.2510 H   0  0  0  0  0  0  0  0  0  0  0  0
    0.7285   -2.1221   -2.1487 H   0  0  0  0  0  0  0  0  0  0  0  0
    6.1178   -1.2472   -2.7606 H   0  0  0  0  0  0  0  0  0  0  0  0
    7.0866    0.3552   -1.1576 H   0  0  0  0  0  0  0  0  0  0  0  0
    6.7481    1.8680    0.7636 H   0  0  0  0  0  0  0  0  0  0  0  0
    4.5246    2.1186    1.7808 H   0  0  0  0  0  0  0  0  0  0  0  0
   -1.3574    1.1528    2.3338 H   0  0  0  0  0  0  0  0  0  0  0  0
  1  2  1  0
  2  3  1  0
  2  4  2  3
  4  5  1  0
  5  6  1  0
  6  7  2  0
  7  8  1  0
  7  9  1  0
  9 10  2  0
 10 11  1  0
 11 12  1  0
 12 13  2  0
 13 14  1  0
 13 15  1  0
 15 16  2  0
 16 17  1  0
 17 18  2  0
 18 19  1  0
 19 20  2  0
 19 21  1  0
 21 22  2  0
 22 23  1  0
 22  6  1  0
 21 10  1  0
 18 12  1  0
  1 24  1  0
  1 25  1  0
  1 26  1  0
  3 27  1  0
  3 28  1  0
  3 29  1  0
  4 30  1  0
  5 31  1  0
  5 32  1  0
  8 33  1  0
  9 34  1  0
 14 35  1  0
 15 36  1  0
 16 37  1  0
 17 38  1  0
 23 39  1  0
M  END

     RDKit          3D

 38 41  0  0  0  0  0  0  0  0999 V2000
    1.2189    0.7627   -3.8059 C   0  0  0  0  0  0  0  0  0  0  0  0
    0.7892    1.4363   -2.6255 O   0  0  0  0  0  0  0  0  0  0  0  0
    0.2845    0.7637   -1.5048 C   0  0  0  0  0  0  0  0  0  0  0  0
    0.8932    0.9441   -0.2431 C   0  0  0  0  0  0  0  0  0  0  0  0
    2.0516    1.8438   -0.0564 C   0  0  0  0  0  0  0  0  0  0  0  0
    3.1475    1.4126    0.7116 C   0  0  0  0  0  0  0  0  0  0  0  0
    4.2382    2.2611    0.9221 C   0  0  0  0  0  0  0  0  0  0  0  0
    4.2370    3.5507    0.3833 C   0  0  0  0  0  0  0  0  0  0  0  0
    3.1450    3.9946   -0.3656 C   0  0  0  0  0  0  0  0  0  0  0  0
    2.0555    3.1460   -0.5877 C   0  0  0  0  0  0  0  0  0  0  0  0
    0.4430    0.2752    0.8157 O   0  0  0  0  0  0  0  0  0  0  0  0
   -0.5891   -0.5568    0.7552 C   0  0  0  0  0  0  0  0  0  0  0  0
   -1.2750   -0.7794   -0.4638 C   0  0  0  0  0  0  0  0  0  0  0  0
   -2.3897   -1.6622   -0.4944 C   0  0  0  0  0  0  0  0  0  0  0  0
   -2.8197   -2.3230    0.6830 C   0  0  0  0  0  0  0  0  0  0  0  0
   -3.9108   -3.2027    0.7143 O   0  0  0  0  0  0  0  0  0  0  0  0
   -4.7037   -3.5355   -0.4198 C   0  0  0  0  0  0  0  0  0  0  0  0
   -2.1102   -2.0735    1.8560 C   0  0  0  0  0  0  0  0  0  0  0  0
   -2.3351   -2.5713    3.0471 O   0  0  0  0  0  0  0  0  0  0  0  0
   -1.4286   -2.0712    3.8674 C   0  0  0  0  0  0  0  0  0  0  0  0
   -0.5775   -1.2119    3.1845 C   0  0  0  0  0  0  0  0  0  0  0  0
   -1.0359   -1.2276    1.8892 C   0  0  0  0  0  0  0  0  0  0  0  0
   -0.8243   -0.0973   -1.6049 C   0  0  0  0  0  0  0  0  0  0  0  0
   -1.4234   -0.2352   -2.7065 O   0  0  0  0  0  0  0  0  0  0  0  0
    1.6387    1.5116   -4.5097 H   0  0  0  0  0  0  0  0  0  0  0  0
    0.3751    0.2409   -4.3048 H   0  0  0  0  0  0  0  0  0  0  0  0
    2.0120    0.0241   -3.5490 H   0  0  0  0  0  0  0  0  0  0  0  0
    3.1599    0.4180    1.1418 H   0  0  0  0  0  0  0  0  0  0  0  0
    5.0870    1.9162    1.5005 H   0  0  0  0  0  0  0  0  0  0  0  0
    5.0785    4.2085    0.5553 H   0  0  0  0  0  0  0  0  0  0  0  0
    3.1428    4.9968   -0.7722 H   0  0  0  0  0  0  0  0  0  0  0  0
    1.2087    3.5150   -1.1511 H   0  0  0  0  0  0  0  0  0  0  0  0
   -2.9144   -1.8313   -1.4244 H   0  0  0  0  0  0  0  0  0  0  0  0
   -5.1830   -2.6226   -0.8305 H   0  0  0  0  0  0  0  0  0  0  0  0
   -5.4970   -4.2454   -0.1113 H   0  0  0  0  0  0  0  0  0  0  0  0
   -4.0761   -4.0227   -1.1943 H   0  0  0  0  0  0  0  0  0  0  0  0
   -1.3681   -2.3010    4.9226 H   0  0  0  0  0  0  0  0  0  0  0  0
    0.2552   -0.6513    3.5868 H   0  0  0  0  0  0  0  0  0  0  0  0
  1  2  1  0
  2  3  1  0
  3  4  2  0
  4  5  1  0
  5  6  2  0
  6  7  1  0
  7  8  2  0
  8  9  1  0
  9 10  2  0
  4 11  1  0
 11 12  1  0
 12 13  2  0
 13 14  1  0
 14 15  2  0
 15 16  1  0
 16 17  1  0
 15 18  1  0
 18 19  1  0
 19 20  1  0
 20 21  2  0
 21 22  1  0
 13 23  1  0
 23 24  2  0
 23  3  1  0
 10  5  1  0
 22 12  1  0
 22 18  2  0
  1 25  1  0
  1 26  1  0
  1 27  1  0
  6 28  1  0
  7 29  1  0
  8 30  1  0
  9 31  1  0
 10 32  1  0
 14 33  1  0
 17 34  1  0
 17 35  1  0
 17 36  1  0
 20 37  1  0
 21 38  1  0
M  END

     RDKit          3D

 58 63  0  0  0  0  0  0  0  0999 V2000
    3.0355    3.7049   -2.9055 C   0  0  0  0  0  0  0  0  0  0  0  0
    2.9592    2.5229   -1.9830 C   0  0  0  0  0  0  0  0  0  0  0  0
    4.0766    1.7027   -1.7807 C   0  0  0  0  0  0  0  0  0  0  0  0
    4.0134    0.6169   -0.8962 C   0  0  0  0  0  0  0  0  0  0  0  0
    5.1440   -0.1816   -0.7088 O   0  0  0  0  0  0  0  0  0  0  0  0
    2.8178    0.3458   -0.1949 C   0  0  0  0  0  0  0  0  0  0  0  0
    1.6930    1.1763   -0.3922 C   0  0  0  0  0  0  0  0  0  0  0  0
    1.7771    2.2615   -1.2808 C   0  0  0  0  0  0  0  0  0  0  0  0
    0.3575    0.8593    0.2600 C   0  0  1  0  0  0  0  0  0  0  0  0
   -0.6146    0.1809   -0.7627 C   0  0  1  0  0  0  0  0  0  0  0  0
   -0.3127   -1.2983   -0.9630 C   0  0  0  0  0  0  0  0  0  0  0  0
    0.7567   -1.6761   -1.7951 C   0  0  0  0  0  0  0  0  0  0  0  0
    1.1284   -3.0147   -1.9058 C   0  0  0  0  0  0  0  0  0  0  0  0
    0.4347   -3.9922   -1.1993 C   0  0  0  0  0  0  0  0  0  0  0  0
   -0.6556   -3.6489   -0.3930 C   0  0  0  0  0  0  0  0  0  0  0  0
   -1.3522   -4.6542    0.2816 O   0  0  0  0  0  0  0  0  0  0  0  0
   -1.0443   -2.2928   -0.2754 C   0  0  0  0  0  0  0  0  0  0  0  0
   -2.2499   -1.8948    0.4887 C   0  0  0  0  0  0  0  0  0  0  0  0
   -2.7794   -2.6955    1.3078 O   0  0  0  0  0  0  0  0  0  0  0  0
   -2.8362   -0.5498    0.2722 C   0  0  0  0  0  0  0  0  0  0  0  0
   -4.1496   -0.2306    0.6961 C   0  0  0  0  0  0  0  0  0  0  0  0
   -4.9356   -1.1814    1.3487 O   0  0  0  0  0  0  0  0  0  0  0  0
   -4.6753    1.0437    0.4534 C   0  0  0  0  0  0  0  0  0  0  0  0
   -3.9191    2.0125   -0.2162 C   0  0  0  0  0  0  0  0  0  0  0  0
   -4.4800    3.3921   -0.4232 C   0  0  0  0  0  0  0  0  0  0  0  0
   -2.6122    1.7088   -0.6174 C   0  0  0  0  0  0  0  0  0  0  0  0
   -2.0655    0.4333   -0.3884 C   0  0  0  0  0  0  0  0  0  0  0  0
    0.5096    0.0605    1.5510 C   0  0  0  0  0  0  0  0  0  0  0  0
   -0.5181    0.0968    2.5091 C   0  0  0  0  0  0  0  0  0  0  0  0
   -0.4591   -0.6992    3.6488 C   0  0  0  0  0  0  0  0  0  0  0  0
    0.6605   -1.4945    3.8891 C   0  0  0  0  0  0  0  0  0  0  0  0
    1.7367   -1.4919    2.9961 C   0  0  0  0  0  0  0  0  0  0  0  0
    2.8869   -2.1977    3.3709 O   0  0  0  0  0  0  0  0  0  0  0  0
    1.6463   -0.7533    1.7843 C   0  0  0  0  0  0  0  0  0  0  0  0
    2.7091   -0.7853    0.7532 C   0  0  0  0  0  0  0  0  0  0  0  0
    3.4575   -1.7907    0.6289 O   0  0  0  0  0  0  0  0  0  0  0  0
    3.8734    3.5954   -3.6319 H   0  0  0  0  0  0  0  0  0  0  0  0
    2.0911    3.7950   -3.4884 H   0  0  0  0  0  0  0  0  0  0  0  0
    3.1869    4.6336   -2.3147 H   0  0  0  0  0  0  0  0  0  0  0  0
    4.9990    1.9083   -2.3098 H   0  0  0  0  0  0  0  0  0  0  0  0
    6.0081   -0.0037   -1.2070 H   0  0  0  0  0  0  0  0  0  0  0  0
    0.9127    2.8973   -1.4398 H   0  0  0  0  0  0  0  0  0  0  0  0
   -0.0763    1.8454    0.5553 H   0  0  0  0  0  0  0  0  0  0  0  0
   -0.4727    0.6699   -1.7552 H   0  0  0  0  0  0  0  0  0  0  0  0
    1.3151   -0.9287   -2.3443 H   0  0  0  0  0  0  0  0  0  0  0  0
    1.9598   -3.2952   -2.5396 H   0  0  0  0  0  0  0  0  0  0  0  0
    0.7347   -5.0293   -1.2920 H   0  0  0  0  0  0  0  0  0  0  0  0
   -1.0840   -5.6288    0.2124 H   0  0  0  0  0  0  0  0  0  0  0  0
   -5.8788   -0.9740    1.6602 H   0  0  0  0  0  0  0  0  0  0  0  0
   -5.6783    1.2842    0.7892 H   0  0  0  0  0  0  0  0  0  0  0  0
   -3.9282    3.9310   -1.2251 H   0  0  0  0  0  0  0  0  0  0  0  0
   -4.3951    3.9711    0.5221 H   0  0  0  0  0  0  0  0  0  0  0  0
   -5.5483    3.3321   -0.7169 H   0  0  0  0  0  0  0  0  0  0  0  0
   -2.0117    2.4740   -1.1022 H   0  0  0  0  0  0  0  0  0  0  0  0
   -1.3867    0.7271    2.3551 H   0  0  0  0  0  0  0  0  0  0  0  0
   -1.2694   -0.6799    4.3622 H   0  0  0  0  0  0  0  0  0  0  0  0
    0.7154   -2.0791    4.7988 H   0  0  0  0  0  0  0  0  0  0  0  0
    3.7924   -2.0410    2.9533 H   0  0  0  0  0  0  0  0  0  0  0  0
  1  2  1  0
  2  3  2  0
  3  4  1  0
  4  5  1  0
  4  6  2  0
  6  7  1  0
  7  8  2  0
  7  9  1  0
  9 10  1  0
 10 11  1  0
 11 12  2  0
 12 13  1  0
 13 14  2  0
 14 15  1  0
 15 16  1  0
 15 17  2  0
 17 18  1  0
 18 19  2  0
 18 20  1  0
 20 21  2  0
 21 22  1  0
 21 23  1  0
 23 24  2  0
 24 25  1  0
 24 26  1  0
 26 27  2  0
  9 28  1  0
 28 29  2  0
 29 30  1  0
 30 31  2  0
 31 32  1  0
 32 33  1  0
 32 34  2  0
 34 35  1  0
 35 36  2  0
  8  2  1  0
 27 10  1  0
 34 28  1  0
 35  6  1  0
 17 11  1  0
 27 20  1  0
  1 37  1  0
  1 38  1  0
  1 39  1  0
  3 40  1  0
  5 41  1  0
  8 42  1  0
  9 43  1  1
 10 44  1  6
 12 45  1  0
 13 46  1  0
 14 47  1  0
 16 48  1  0
 22 49  1  0
 23 50  1  0
 25 51  1  0
 25 52  1  0
 25 53  1  0
 26 54  1  0
 29 55  1  0
 30 56  1  0
 31 57  1  0
 33 58  1  0
M  END

     RDKit          3D

 37 41  0  0  0  0  0  0  0  0999 V2000
   -3.5432    1.9889    1.6197 C   0  0  0  0  0  0  0  0  0  0  0  0
   -2.9999    1.7206    0.3316 O   0  0  0  0  0  0  0  0  0  0  0  0
   -3.0494    0.4532   -0.2543 C   0  0  0  0  0  0  0  0  0  0  0  0
   -4.3093   -0.0877   -0.5748 C   0  0  0  0  0  0  0  0  0  0  0  0
   -5.4550    0.6980   -0.4564 O   0  0  0  0  0  0  0  0  0  0  0  0
   -4.4188   -1.4067   -1.0145 C   0  0  0  0  0  0  0  0  0  0  0  0
   -3.2872   -2.2039   -1.1213 C   0  0  0  0  0  0  0  0  0  0  0  0
   -2.0194   -1.6751   -0.8479 C   0  0  0  0  0  0  0  0  0  0  0  0
   -0.9061   -2.5142   -0.9100 C   0  0  0  0  0  0  0  0  0  0  0  0
    0.3256   -2.0356   -0.6305 N   0  0  0  0  0  0  0  0  0  0  0  0
    0.5563   -0.7296   -0.3369 C   0  0  0  0  0  0  0  0  0  0  0  0
    1.8790   -0.2983   -0.0916 C   0  0  0  0  0  0  0  0  0  0  0  0
    2.9609   -1.2157   -0.0586 C   0  0  0  0  0  0  0  0  0  0  0  0
    4.2364   -0.7210    0.1903 C   0  0  0  0  0  0  0  0  0  0  0  0
    4.4709    0.5975    0.3954 C   0  0  0  0  0  0  0  0  0  0  0  0
    3.4514    1.5414    0.3672 C   0  0  0  0  0  0  0  0  0  0  0  0
    2.1365    1.0893    0.1205 C   0  0  0  0  0  0  0  0  0  0  0  0
    1.0851    2.0029    0.0498 C   0  0  0  0  0  0  0  0  0  0  0  0
   -0.2194    1.5697   -0.1825 C   0  0  0  0  0  0  0  0  0  0  0  0
   -0.5282    0.1946   -0.3131 C   0  0  0  0  0  0  0  0  0  0  0  0
   -1.8615   -0.3081   -0.4844 C   0  0  0  0  0  0  0  0  0  0  0  0
    5.8200    0.7968    0.6170 O   0  0  0  0  0  0  0  0  0  0  0  0
    6.4740   -0.4781    0.5456 C   0  0  0  0  0  0  0  0  0  0  0  0
    5.4263   -1.4188    0.2727 O   0  0  0  0  0  0  0  0  0  0  0  0
   -3.0692    1.3247    2.3737 H   0  0  0  0  0  0  0  0  0  0  0  0
   -4.6420    1.8371    1.6266 H   0  0  0  0  0  0  0  0  0  0  0  0
   -3.3315    3.0442    1.8891 H   0  0  0  0  0  0  0  0  0  0  0  0
   -6.3751    0.3349   -0.6773 H   0  0  0  0  0  0  0  0  0  0  0  0
   -5.3890   -1.8249   -1.2504 H   0  0  0  0  0  0  0  0  0  0  0  0
   -3.4029   -3.2390   -1.4207 H   0  0  0  0  0  0  0  0  0  0  0  0
   -1.0155   -3.5631   -1.1581 H   0  0  0  0  0  0  0  0  0  0  0  0
    2.8230   -2.2784   -0.2128 H   0  0  0  0  0  0  0  0  0  0  0  0
    3.6739    2.5895    0.5266 H   0  0  0  0  0  0  0  0  0  0  0  0
    1.2749    3.0647    0.1566 H   0  0  0  0  0  0  0  0  0  0  0  0
   -0.9481    2.3474   -0.3215 H   0  0  0  0  0  0  0  0  0  0  0  0
    6.9599   -0.7148    1.5154 H   0  0  0  0  0  0  0  0  0  0  0  0
    7.2165   -0.4825   -0.2801 H   0  0  0  0  0  0  0  0  0  0  0  0
  1  2  1  0
  2  3  1  0
  3  4  2  0
  4  5  1  0
  4  6  1  0
  6  7  2  0
  7  8  1  0
  8  9  2  0
  9 10  1  0
 10 11  2  0
 11 12  1  0
 12 13  2  0
 13 14  1  0
 14 15  2  0
 15 16  1  0
 16 17  2  0
 17 18  1  0
 18 19  2  0
 19 20  1  0
 20 21  2  0
 15 22  1  0
 22 23  1  0
 23 24  1  0
 21  3  1  0
 21  8  1  0
 20 11  1  0
 17 12  1  0
 24 14  1  0
  1 25  1  0
  1 26  1  0
  1 27  1  0
  5 28  1  0
  6 29  1  0
  7 30  1  0
  9 31  1  0
 13 32  1  0
 16 33  1  0
 18 34  1  0
 19 35  1  0
 23 36  1  0
 23 37  1  0
M  END

     RDKit          3D

 48 51  0  0  0  0  0  0  0  0999 V2000
    5.5627    0.8417   -2.1451 C   0  0  0  0  0  0  0  0  0  0  0  0
    4.7622    1.1974   -1.0220 O   0  0  0  0  0  0  0  0  0  0  0  0
    3.6587    0.4587   -0.5656 C   0  0  0  0  0  0  0  0  0  0  0  0
    3.2433   -0.7324   -1.1888 C   0  0  0  0  0  0  0  0  0  0  0  0
    2.1226   -1.4257   -0.7118 C   0  0  0  0  0  0  0  0  0  0  0  0
    1.4104   -0.9500    0.3963 C   0  0  0  0  0  0  0  0  0  0  0  0
    1.8403    0.2287    1.0329 C   0  0  0  0  0  0  0  0  0  0  0  0
    2.9522    0.9304    0.5490 C   0  0  0  0  0  0  0  0  0  0  0  0
    3.3642    2.1040    1.1767 O   0  0  0  0  0  0  0  0  0  0  0  0
    0.2360   -1.8023    0.8589 C   0  0  1  0  0  0  0  0  0  0  0  0
   -0.6260   -1.2071    1.9858 C   0  0  0  0  0  0  0  0  0  0  0  0
   -1.3743   -0.0232    1.4685 C   0  0  0  0  0  0  0  0  0  0  0  0
   -1.5608    1.1178    2.2596 C   0  0  0  0  0  0  0  0  0  0  0  0
   -2.2405    2.2284    1.7510 C   0  0  0  0  0  0  0  0  0  0  0  0
   -2.3944    3.3530    2.5621 O   0  0  0  0  0  0  0  0  0  0  0  0
   -2.7531    2.2016    0.4417 C   0  0  0  0  0  0  0  0  0  0  0  0
   -3.4262    3.3334   -0.0466 O   0  0  0  0  0  0  0  0  0  0  0  0
   -3.9745    3.4448   -1.3564 C   0  0  0  0  0  0  0  0  0  0  0  0
   -2.5811    1.0416   -0.3395 C   0  0  0  0  0  0  0  0  0  0  0  0
   -1.8902   -0.0713    0.1690 C   0  0  0  0  0  0  0  0  0  0  0  0
   -1.7744   -1.3422   -0.6569 C   0  0  2  0  0  0  0  0  0  0  0  0
   -3.0486   -2.1714   -0.4884 C   0  0  0  0  0  0  0  0  0  0  0  0
   -0.5996   -2.2010   -0.3086 N   0  0  0  0  0  0  0  0  0  0  0  0
    0.1447   -2.7182   -1.4975 C   0  0  0  0  0  0  0  0  0  0  0  0
    1.6753   -2.7166   -1.3354 C   0  0  0  0  0  0  0  0  0  0  0  0
    6.0468   -0.1442   -1.9728 H   0  0  0  0  0  0  0  0  0  0  0  0
    4.9402    0.8060   -3.0646 H   0  0  0  0  0  0  0  0  0  0  0  0
    6.3519    1.6089   -2.2838 H   0  0  0  0  0  0  0  0  0  0  0  0
    3.7816   -1.1248   -2.0406 H   0  0  0  0  0  0  0  0  0  0  0  0
    1.3290    0.6159    1.9004 H   0  0  0  0  0  0  0  0  0  0  0  0
    2.8778    2.4725    1.9858 H   0  0  0  0  0  0  0  0  0  0  0  0
    0.6731   -2.7302    1.2890 H   0  0  0  0  0  0  0  0  0  0  0  0
    0.0032   -0.9500    2.8648 H   0  0  0  0  0  0  0  0  0  0  0  0
   -1.3620   -1.9673    2.3270 H   0  0  0  0  0  0  0  0  0  0  0  0
   -1.1667    1.1519    3.2677 H   0  0  0  0  0  0  0  0  0  0  0  0
   -2.8734    4.1864    2.2435 H   0  0  0  0  0  0  0  0  0  0  0  0
   -4.4334    4.4479   -1.4733 H   0  0  0  0  0  0  0  0  0  0  0  0
   -3.1733    3.3316   -2.1167 H   0  0  0  0  0  0  0  0  0  0  0  0
   -4.7602    2.6740   -1.5096 H   0  0  0  0  0  0  0  0  0  0  0  0
   -2.9884    0.9916   -1.3403 H   0  0  0  0  0  0  0  0  0  0  0  0
   -1.7375   -1.0263   -1.7226 H   0  0  0  0  0  0  0  0  0  0  0  0
   -2.9941   -3.0818   -1.1208 H   0  0  0  0  0  0  0  0  0  0  0  0
   -3.9385   -1.5833   -0.7983 H   0  0  0  0  0  0  0  0  0  0  0  0
   -3.1751   -2.4857    0.5697 H   0  0  0  0  0  0  0  0  0  0  0  0
   -0.1916   -3.7562   -1.7004 H   0  0  0  0  0  0  0  0  0  0  0  0
   -0.0706   -2.1274   -2.4137 H   0  0  0  0  0  0  0  0  0  0  0  0
    1.9817   -3.5594   -0.6786 H   0  0  0  0  0  0  0  0  0  0  0  0
    2.1507   -2.8699   -2.3290 H   0  0  0  0  0  0  0  0  0  0  0  0
  1  2  1  0
  2  3  1  0
  3  4  2  0
  4  5  1  0
  5  6  2  0
  6  7  1  0
  7  8  2  0
  8  9  1  0
  6 10  1  0
 10 11  1  0
 11 12  1  0
 12 13  2  0
 13 14  1  0
 14 15  1  0
 14 16  2  0
 16 17  1  0
 17 18  1  0
 16 19  1  0
 19 20  2  0
 20 21  1  0
 21 22  1  0
 21 23  1  0
 23 24  1  0
 24 25  1  0
  8  3  1  0
 23 10  1  0
 25  5  1  0
 20 12  1  0
  1 26  1  0
  1 27  1  0
  1 28  1  0
  4 29  1  0
  7 30  1  0
  9 31  1  0
 10 32  1  1
 11 33  1  0
 11 34  1  0
 13 35  1  0
 15 36  1  0
 18 37  1  0
 18 38  1  0
 18 39  1  0
 19 40  1  0
 21 41  1  6
 22 42  1  0
 22 43  1  0
 22 44  1  0
 24 45  1  0
 24 46  1  0
 25 47  1  0
 25 48  1  0
M  END

     RDKit          3D

 34 36  0  0  0  0  0  0  0  0999 V2000
   -4.8842    2.1543   -0.7529 C   0  0  0  0  0  0  0  0  0  0  0  0
   -4.1353    1.0023   -0.4077 O   0  0  0  0  0  0  0  0  0  0  0  0
   -3.0453    1.0306    0.4702 C   0  0  0  0  0  0  0  0  0  0  0  0
   -2.7277    2.1040    1.0652 O   0  0  0  0  0  0  0  0  0  0  0  0
   -2.3032   -0.2388    0.7224 C   0  0  0  0  0  0  0  0  0  0  0  0
   -3.0718   -1.3999    1.0286 C   0  0  0  0  0  0  0  0  0  0  0  0
   -4.4585   -1.3549    1.2535 O   0  0  0  0  0  0  0  0  0  0  0  0
   -2.4575   -2.6462    1.1121 C   0  0  0  0  0  0  0  0  0  0  0  0
   -1.0946   -2.7884    0.8975 C   0  0  0  0  0  0  0  0  0  0  0  0
   -0.3075   -1.6790    0.6108 C   0  0  0  0  0  0  0  0  0  0  0  0
    0.9858   -1.8806    0.4002 O   0  0  0  0  0  0  0  0  0  0  0  0
    1.8406   -0.9090    0.1195 C   0  0  0  0  0  0  0  0  0  0  0  0
    3.1853   -1.2324   -0.0895 C   0  0  0  0  0  0  0  0  0  0  0  0
    4.1300   -0.2291   -0.3431 C   0  0  0  0  0  0  0  0  0  0  0  0
    5.5812   -0.5862   -0.5244 C   0  0  0  0  0  0  0  0  0  0  0  0
    3.7144    1.1096   -0.4079 C   0  0  0  0  0  0  0  0  0  0  0  0
    2.3631    1.4501   -0.2230 C   0  0  0  0  0  0  0  0  0  0  0  0
    1.9895    2.7952   -0.3012 O   0  0  0  0  0  0  0  0  0  0  0  0
    1.4071    0.4312    0.0484 C   0  0  0  0  0  0  0  0  0  0  0  0
    0.0307    0.6946    0.2567 C   0  0  0  0  0  0  0  0  0  0  0  0
   -0.3761    1.8845    0.2142 O   0  0  0  0  0  0  0  0  0  0  0  0
   -0.8724   -0.3749    0.5387 C   0  0  0  0  0  0  0  0  0  0  0  0
   -5.3635    2.5739    0.1546 H   0  0  0  0  0  0  0  0  0  0  0  0
   -4.2270    2.9179   -1.2310 H   0  0  0  0  0  0  0  0  0  0  0  0
   -5.6752    1.8510   -1.4660 H   0  0  0  0  0  0  0  0  0  0  0  0
   -4.9681   -0.4837    1.3963 H   0  0  0  0  0  0  0  0  0  0  0  0
   -3.0547   -3.5220    1.3447 H   0  0  0  0  0  0  0  0  0  0  0  0
   -0.6478   -3.7711    0.9681 H   0  0  0  0  0  0  0  0  0  0  0  0
    3.4919   -2.2724   -0.0388 H   0  0  0  0  0  0  0  0  0  0  0  0
    5.6807   -1.3369   -1.3409 H   0  0  0  0  0  0  0  0  0  0  0  0
    6.1861    0.2941   -0.8044 H   0  0  0  0  0  0  0  0  0  0  0  0
    5.9736   -1.0134    0.4262 H   0  0  0  0  0  0  0  0  0  0  0  0
    4.4405    1.8938   -0.5844 H   0  0  0  0  0  0  0  0  0  0  0  0
    2.6702    3.5317   -0.4629 H   0  0  0  0  0  0  0  0  0  0  0  0
  1  2  1  0
  2  3  1  0
  3  4  2  0
  3  5  1  0
  5  6  2  0
  6  7  1  0
  6  8  1  0
  8  9  2  0
  9 10  1  0
 10 11  1  0
 11 12  1  0
 12 13  2  0
 13 14  1  0
 14 15  1  0
 14 16  2  0
 16 17  1  0
 17 18  1  0
 17 19  2  0
 19 20  1  0
 20 21  2  0
 20 22  1  0
 22  5  1  0
 22 10  2  0
 19 12  1  0
  1 23  1  0
  1 24  1  0
  1 25  1  0
  7 26  1  0
  8 27  1  0
  9 28  1  0
 13 29  1  0
 15 30  1  0
 15 31  1  0
 15 32  1  0
 16 33  1  0
 18 34  1  0
M  END

     RDKit          3D

 38 40  0  0  0  0  0  0  0  0999 V2000
    5.0936    1.6443    0.4825 C   0  0  0  0  0  0  0  0  0  0  0  0
    4.6390    0.5555   -0.3148 O   0  0  0  0  0  0  0  0  0  0  0  0
    3.2988    0.1497   -0.4230 C   0  0  0  0  0  0  0  0  0  0  0  0
    2.2626    0.8011    0.2644 C   0  0  0  0  0  0  0  0  0  0  0  0
    0.9253    0.3772    0.1401 C   0  0  0  0  0  0  0  0  0  0  0  0
   -0.1071    1.0627    0.8031 O   0  0  0  0  0  0  0  0  0  0  0  0
    0.0670    2.1947    1.6488 C   0  0  0  0  0  0  0  0  0  0  0  0
    0.6239   -0.7445   -0.6782 C   0  0  0  0  0  0  0  0  0  0  0  0
   -0.6877   -1.2673   -0.8500 C   0  0  0  0  0  0  0  0  0  0  0  0
   -1.8693   -0.7600   -0.1255 C   0  0  0  0  0  0  0  0  0  0  0  0
   -2.0718   -1.1026    1.2190 C   0  0  0  0  0  0  0  0  0  0  0  0
   -3.1909   -0.6229    1.9039 C   0  0  0  0  0  0  0  0  0  0  0  0
   -4.1222    0.1935    1.2526 C   0  0  0  0  0  0  0  0  0  0  0  0
   -5.2288    0.6587    1.9621 O   0  0  0  0  0  0  0  0  0  0  0  0
   -3.9312    0.5302   -0.0993 C   0  0  0  0  0  0  0  0  0  0  0  0
   -4.8568    1.3402   -0.7551 O   0  0  0  0  0  0  0  0  0  0  0  0
   -2.8064    0.0481   -0.7847 C   0  0  0  0  0  0  0  0  0  0  0  0
   -0.8851   -2.3426   -1.7221 C   0  0  0  0  0  0  0  0  0  0  0  0
    0.2063   -2.8960   -2.3851 C   0  0  0  0  0  0  0  0  0  0  0  0
    0.0403   -3.8679   -3.1676 O   0  0  0  0  0  0  0  0  0  0  0  0
    1.4238   -2.4089   -2.1938 O   0  0  0  0  0  0  0  0  0  0  0  0
    1.6775   -1.3816   -1.3873 C   0  0  0  0  0  0  0  0  0  0  0  0
    3.0012   -0.9355   -1.2500 C   0  0  0  0  0  0  0  0  0  0  0  0
    4.0421   -1.5650   -1.9356 O   0  0  0  0  0  0  0  0  0  0  0  0
    4.6254    2.5909    0.1393 H   0  0  0  0  0  0  0  0  0  0  0  0
    4.8519    1.4627    1.5511 H   0  0  0  0  0  0  0  0  0  0  0  0
    6.1942    1.7348    0.3781 H   0  0  0  0  0  0  0  0  0  0  0  0
    2.4982    1.6469    0.8919 H   0  0  0  0  0  0  0  0  0  0  0  0
   -0.9242    2.5139    2.0311 H   0  0  0  0  0  0  0  0  0  0  0  0
    0.7119    1.9305    2.5133 H   0  0  0  0  0  0  0  0  0  0  0  0
    0.5128    3.0351    1.0762 H   0  0  0  0  0  0  0  0  0  0  0  0
   -1.3590   -1.7335    1.7359 H   0  0  0  0  0  0  0  0  0  0  0  0
   -3.3356   -0.8860    2.9440 H   0  0  0  0  0  0  0  0  0  0  0  0
   -5.9307    1.2518    1.5357 H   0  0  0  0  0  0  0  0  0  0  0  0
   -4.7420    1.5963   -1.7289 H   0  0  0  0  0  0  0  0  0  0  0  0
   -2.6578    0.3082   -1.8259 H   0  0  0  0  0  0  0  0  0  0  0  0
   -1.8762   -2.7563   -1.8729 H   0  0  0  0  0  0  0  0  0  0  0  0
    3.8870   -2.3566   -2.5481 H   0  0  0  0  0  0  0  0  0  0  0  0
  1  2  1  0
  2  3  1  0
  3  4  2  0
  4  5  1  0
  5  6  1  0
  6  7  1  0
  5  8  2  0
  8  9  1  0
  9 10  1  0
 10 11  2  0
 11 12  1  0
 12 13  2  0
 13 14  1  0
 13 15  1  0
 15 16  1  0
 15 17  2  0
  9 18  2  0
 18 19  1  0
 19 20  2  0
 19 21  1  0
 21 22  1  0
 22 23  2  0
 23 24  1  0
 23  3  1  0
 22  8  1  0
 17 10  1  0
  1 25  1  0
  1 26  1  0
  1 27  1  0
  4 28  1  0
  7 29  1  0
  7 30  1  0
  7 31  1  0
 11 32  1  0
 12 33  1  0
 14 34  1  0
 16 35  1  0
 17 36  1  0
 18 37  1  0
 24 38  1  0
M  END

     RDKit          3D

 45 47  0  0  0  0  0  0  0  0999 V2000
    6.4504    1.9805    0.7982 C   0  0  0  0  0  0  0  0  0  0  0  0
    5.8573    1.3036   -0.3058 O   0  0  0  0  0  0  0  0  0  0  0  0
    4.5199    0.8766   -0.3568 C   0  0  0  0  0  0  0  0  0  0  0  0
    3.6382    1.0635    0.7236 C   0  0  0  0  0  0  0  0  0  0  0  0
    2.3145    0.6257    0.6428 C   0  0  0  0  0  0  0  0  0  0  0  0
    1.8464   -0.0159   -0.5127 C   0  0  0  0  0  0  0  0  0  0  0  0
    0.4301   -0.4417   -0.5842 C   0  0  0  0  0  0  0  0  0  0  0  0
   -0.4908    0.3605   -0.0672 O   0  0  0  0  0  0  0  0  0  0  0  0
   -1.7915    0.0952   -0.0918 C   0  0  0  0  0  0  0  0  0  0  0  0
   -2.6691    0.9963    0.5199 C   0  0  0  0  0  0  0  0  0  0  0  0
   -2.1692    2.1414    1.1418 O   0  0  0  0  0  0  0  0  0  0  0  0
   -1.7131    2.1077    2.4877 C   0  0  0  0  0  0  0  0  0  0  0  0
   -4.0447    0.7587    0.5203 C   0  0  0  0  0  0  0  0  0  0  0  0
   -4.8810    1.6772    1.1735 O   0  0  0  0  0  0  0  0  0  0  0  0
   -6.2936    1.5461    1.2852 C   0  0  0  0  0  0  0  0  0  0  0  0
   -4.5456   -0.3777   -0.1322 C   0  0  0  0  0  0  0  0  0  0  0  0
   -3.6924   -1.2807   -0.7771 C   0  0  0  0  0  0  0  0  0  0  0  0
   -4.3015   -2.3357   -1.4648 O   0  0  0  0  0  0  0  0  0  0  0  0
   -2.2822   -1.0785   -0.7195 C   0  0  0  0  0  0  0  0  0  0  0  0
   -1.3200   -1.9922   -1.2140 C   0  0  0  0  0  0  0  0  0  0  0  0
   -1.6625   -3.0932   -1.7172 O   0  0  0  0  0  0  0  0  0  0  0  0
    0.0478   -1.6767   -1.1359 C   0  0  0  0  0  0  0  0  0  0  0  0
    1.0338   -2.5676   -1.5815 O   0  0  0  0  0  0  0  0  0  0  0  0
    1.1309   -3.9199   -1.1400 C   0  0  0  0  0  0  0  0  0  0  0  0
    2.7186   -0.1865   -1.6011 C   0  0  0  0  0  0  0  0  0  0  0  0
    4.0471    0.2491   -1.5252 C   0  0  0  0  0  0  0  0  0  0  0  0
    4.8812    0.0513   -2.6239 O   0  0  0  0  0  0  0  0  0  0  0  0
    7.5094    2.2185    0.5571 H   0  0  0  0  0  0  0  0  0  0  0  0
    6.4260    1.3259    1.6955 H   0  0  0  0  0  0  0  0  0  0  0  0
    5.9100    2.9318    0.9976 H   0  0  0  0  0  0  0  0  0  0  0  0
    3.9661    1.5519    1.6274 H   0  0  0  0  0  0  0  0  0  0  0  0
    1.6540    0.7771    1.4906 H   0  0  0  0  0  0  0  0  0  0  0  0
   -1.3571    3.1192    2.7713 H   0  0  0  0  0  0  0  0  0  0  0  0
   -2.5444    1.8113    3.1692 H   0  0  0  0  0  0  0  0  0  0  0  0
   -0.8738    1.3837    2.5894 H   0  0  0  0  0  0  0  0  0  0  0  0
   -6.7617    1.5575    0.2788 H   0  0  0  0  0  0  0  0  0  0  0  0
   -6.6902    2.4039    1.8638 H   0  0  0  0  0  0  0  0  0  0  0  0
   -6.5491    0.6075    1.8211 H   0  0  0  0  0  0  0  0  0  0  0  0
   -5.6109   -0.5609   -0.1683 H   0  0  0  0  0  0  0  0  0  0  0  0
   -3.8653   -2.8627   -2.2056 H   0  0  0  0  0  0  0  0  0  0  0  0
    0.2927   -4.5314   -1.5313 H   0  0  0  0  0  0  0  0  0  0  0  0
    2.0796   -4.3560   -1.5190 H   0  0  0  0  0  0  0  0  0  0  0  0
    1.1422   -3.9564   -0.0288 H   0  0  0  0  0  0  0  0  0  0  0  0
    2.3638   -0.6318   -2.5250 H   0  0  0  0  0  0  0  0  0  0  0  0
    5.8499    0.3438   -2.6261 H   0  0  0  0  0  0  0  0  0  0  0  0
  1  2  1  0
  2  3  1  0
  3  4  2  0
  4  5  1  0
  5  6  2  0
  6  7  1  0
  7  8  1  0
  8  9  1  0
  9 10  2  0
 10 11  1  0
 11 12  1  0
 10 13  1  0
 13 14  1  0
 14 15  1  0
 13 16  2  0
 16 17  1  0
 17 18  1  0
 17 19  2  0
 19 20  1  0
 20 21  2  0
 20 22  1  0
 22 23  1  0
 23 24  1  0
  6 25  1  0
 25 26  2  0
 26 27  1  0
 26  3  1  0
 22  7  2  0
 19  9  1  0
  1 28  1  0
  1 29  1  0
  1 30  1  0
  4 31  1  0
  5 32  1  0
 12 33  1  0
 12 34  1  0
 12 35  1  0
 15 36  1  0
 15 37  1  0
 15 38  1  0
 16 39  1  0
 18 40  1  0
 24 41  1  0
 24 42  1  0
 24 43  1  0
 25 44  1  0
 27 45  1  0
M  END

     RDKit          3D

 47 50  0  0  0  0  0  0  0  0999 V2000
   -4.8566   -2.4108    2.2911 C   0  0  0  0  0  0  0  0  0  0  0  0
   -4.7814   -1.8727    0.9721 O   0  0  0  0  0  0  0  0  0  0  0  0
   -3.6622   -1.1976    0.4572 C   0  0  0  0  0  0  0  0  0  0  0  0
   -2.4592   -1.0837    1.1829 C   0  0  0  0  0  0  0  0  0  0  0  0
   -1.3681   -0.4000    0.6403 C   0  0  0  0  0  0  0  0  0  0  0  0
   -1.4735    0.2187   -0.6157 C   0  0  0  0  0  0  0  0  0  0  0  0
   -0.3256    0.9090   -1.2392 C   0  0  0  0  0  0  0  0  0  0  0  0
    0.4833    1.7928   -0.6260 C   0  0  0  0  0  0  0  0  0  0  0  0
    0.3473    2.4022    0.6888 C   0  0  0  0  0  0  0  0  0  0  0  0
   -0.5771    2.1924    1.5145 O   0  0  0  0  0  0  0  0  0  0  0  0
    1.3371    3.3375    0.8980 O   0  0  0  0  0  0  0  0  0  0  0  0
    2.1419    3.5074   -0.2616 C   0  0  0  0  0  0  0  0  0  0  0  0
    1.6829    2.4228   -1.2762 C   0  0  1  0  0  0  0  0  0  0  0  0
    2.7916    1.3967   -1.6228 C   0  0  0  0  0  0  0  0  0  0  0  0
    3.2494    0.5609   -0.4480 C   0  0  0  0  0  0  0  0  0  0  0  0
    4.4052    0.9255    0.2919 C   0  0  0  0  0  0  0  0  0  0  0  0
    4.8145    0.1593    1.4024 C   0  0  0  0  0  0  0  0  0  0  0  0
    4.0582   -0.9641    1.7337 C   0  0  0  0  0  0  0  0  0  0  0  0
    2.9620   -1.3253    1.0222 C   0  0  0  0  0  0  0  0  0  0  0  0
    2.5297   -0.6005   -0.0839 C   0  0  0  0  0  0  0  0  0  0  0  0
    2.4143   -2.4736    1.5653 O   0  0  0  0  0  0  0  0  0  0  0  0
    3.2246   -2.8608    2.6837 C   0  0  0  0  0  0  0  0  0  0  0  0
    4.2651   -1.8727    2.7524 O   0  0  0  0  0  0  0  0  0  0  0  0
   -2.6555    0.0699   -1.3563 C   0  0  0  0  0  0  0  0  0  0  0  0
   -3.7539   -0.6364   -0.8269 C   0  0  0  0  0  0  0  0  0  0  0  0
   -4.9481   -0.8063   -1.5477 O   0  0  0  0  0  0  0  0  0  0  0  0
   -5.1476   -0.3691   -2.8875 C   0  0  0  0  0  0  0  0  0  0  0  0
   -4.0888   -3.2064    2.4232 H   0  0  0  0  0  0  0  0  0  0  0  0
   -5.8615   -2.8537    2.4448 H   0  0  0  0  0  0  0  0  0  0  0  0
   -4.7067   -1.6064    3.0431 H   0  0  0  0  0  0  0  0  0  0  0  0
   -2.3531   -1.5280    2.1638 H   0  0  0  0  0  0  0  0  0  0  0  0
   -0.4417   -0.3622    1.1991 H   0  0  0  0  0  0  0  0  0  0  0  0
   -0.1346    0.6843   -2.2823 H   0  0  0  0  0  0  0  0  0  0  0  0
    3.2141    3.4367    0.0069 H   0  0  0  0  0  0  0  0  0  0  0  0
    1.9544    4.5169   -0.6823 H   0  0  0  0  0  0  0  0  0  0  0  0
    1.3569    2.9193   -2.2175 H   0  0  0  0  0  0  0  0  0  0  0  0
    3.6581    1.9343   -2.0659 H   0  0  0  0  0  0  0  0  0  0  0  0
    2.4160    0.7183   -2.4202 H   0  0  0  0  0  0  0  0  0  0  0  0
    4.9828    1.7958    0.0075 H   0  0  0  0  0  0  0  0  0  0  0  0
    5.6884    0.4362    1.9781 H   0  0  0  0  0  0  0  0  0  0  0  0
    1.6729   -0.9359   -0.6490 H   0  0  0  0  0  0  0  0  0  0  0  0
    3.6604   -3.8684    2.5116 H   0  0  0  0  0  0  0  0  0  0  0  0
    2.6254   -2.8466    3.6181 H   0  0  0  0  0  0  0  0  0  0  0  0
   -2.7141    0.5177   -2.3415 H   0  0  0  0  0  0  0  0  0  0  0  0
   -5.0593    0.7373   -2.9445 H   0  0  0  0  0  0  0  0  0  0  0  0
   -4.4040   -0.8469   -3.5604 H   0  0  0  0  0  0  0  0  0  0  0  0
   -6.1640   -0.6635   -3.2198 H   0  0  0  0  0  0  0  0  0  0  0  0
  1  2  1  0
  2  3  1  0
  3  4  2  0
  4  5  1  0
  5  6  2  0
  6  7  1  0
  7  8  2  0
  8  9  1  0
  9 10  2  0
  9 11  1  0
 11 12  1  0
 12 13  1  0
 13 14  1  0
 14 15  1  0
 15 16  2  0
 16 17  1  0
 17 18  2  0
 18 19  1  0
 19 20  2  0
 19 21  1  0
 21 22  1  0
 22 23  1  0
  6 24  1  0
 24 25  2  0
 25 26  1  0
 26 27  1  0
 25  3  1  0
 13  8  1  0
 20 15  1  0
 23 18  1  0
  1 28  1  0
  1 29  1  0
  1 30  1  0
  4 31  1  0
  5 32  1  0
  7 33  1  0
 12 34  1  0
 12 35  1  0
 13 36  1  6
 14 37  1  0
 14 38  1  0
 16 39  1  0
 17 40  1  0
 20 41  1  0
 22 42  1  0
 22 43  1  0
 24 44  1  0
 27 45  1  0
 27 46  1  0
 27 47  1  0
M  END

     RDKit          3D

 31 32  0  0  0  0  0  0  0  0999 V2000
   -3.0430    1.3582   -0.9490 C   0  0  0  0  0  0  0  0  0  0  0  0
   -2.9061    0.0269   -0.3255 N   0  0  0  0  0  4  0  0  0  0  0  0
   -3.7758   -0.0584    0.8626 C   0  0  0  0  0  0  0  0  0  0  0  0
   -3.3348   -0.9075   -1.2139 O   0  0  0  0  0  1  0  0  0  0  0  0
   -1.5029   -0.2761    0.0568 C   0  0  0  0  0  0  0  0  0  0  0  0
   -0.5319   -0.3267   -1.1402 C   0  0  0  0  0  0  0  0  0  0  0  0
    0.8213   -0.7953   -0.6948 C   0  0  0  0  0  0  0  0  0  0  0  0
    1.2849   -2.1077   -0.6936 C   0  0  0  0  0  0  0  0  0  0  0  0
    2.5222   -2.1705   -0.1505 N   0  0  0  0  0  0  0  0  0  0  0  0
    2.8376   -0.9119    0.2026 C   0  0  0  0  0  0  0  0  0  0  0  0
    4.0085   -0.4760    0.8215 C   0  0  0  0  0  0  0  0  0  0  0  0
    4.1224    0.8938    1.1228 C   0  0  0  0  0  0  0  0  0  0  0  0
    3.0735    1.7860    0.8067 C   0  0  0  0  0  0  0  0  0  0  0  0
    1.9019    1.3173    0.1847 C   0  0  0  0  0  0  0  0  0  0  0  0
    1.8213   -0.0447   -0.1077 C   0  0  0  0  0  0  0  0  0  0  0  0
   -4.1145    1.6107   -1.1124 H   0  0  0  0  0  0  0  0  0  0  0  0
   -2.5569    1.3841   -1.9479 H   0  0  0  0  0  0  0  0  0  0  0  0
   -2.5909    2.1466   -0.3065 H   0  0  0  0  0  0  0  0  0  0  0  0
   -3.4883    0.7043    1.6206 H   0  0  0  0  0  0  0  0  0  0  0  0
   -3.7060   -1.0650    1.3318 H   0  0  0  0  0  0  0  0  0  0  0  0
   -4.8409    0.1049    0.5855 H   0  0  0  0  0  0  0  0  0  0  0  0
   -1.1337    0.4823    0.7851 H   0  0  0  0  0  0  0  0  0  0  0  0
   -1.4646   -1.2658    0.5688 H   0  0  0  0  0  0  0  0  0  0  0  0
   -0.9132   -1.0198   -1.9196 H   0  0  0  0  0  0  0  0  0  0  0  0
   -0.4217    0.6787   -1.5955 H   0  0  0  0  0  0  0  0  0  0  0  0
    0.7411   -2.9695   -1.0586 H   0  0  0  0  0  0  0  0  0  0  0  0
    3.1043   -3.0275   -0.0195 H   0  0  0  0  0  0  0  0  0  0  0  0
    4.8037   -1.1683    1.0660 H   0  0  0  0  0  0  0  0  0  0  0  0
    5.0184    1.2655    1.6024 H   0  0  0  0  0  0  0  0  0  0  0  0
    3.1712    2.8369    1.0453 H   0  0  0  0  0  0  0  0  0  0  0  0
    1.0931    1.9946   -0.0566 H   0  0  0  0  0  0  0  0  0  0  0  0
  1  2  1  0
  2  3  1  0
  2  4  1  0
  2  5  1  0
  5  6  1  0
  6  7  1  0
  7  8  2  0
  8  9  1  0
  9 10  1  0
 10 11  2  0
 11 12  1  0
 12 13  2  0
 13 14  1  0
 14 15  2  0
 15  7  1  0
 15 10  1  0
  1 16  1  0
  1 17  1  0
  1 18  1  0
  3 19  1  0
  3 20  1  0
  3 21  1  0
  5 22  1  0
  5 23  1  0
  6 24  1  0
  6 25  1  0
  8 26  1  0
  9 27  1  0
 11 28  1  0
 12 29  1  0
 13 30  1  0
 14 31  1  0
M  CHG  2   2   1   4  -1
M  END

     RDKit          3D

 34 33  0  0  0  0  0  0  0  0999 V2000
    4.9027    1.8696   -0.4854 C   0  0  0  0  0  0  0  0  0  0  0  0
    3.7636    1.2075    0.2214 C   0  0  0  0  0  0  0  0  0  0  0  0
    3.0048    1.8937    0.9586 O   0  0  0  0  0  0  0  0  0  0  0  0
    3.5535   -0.2035    0.0649 N   0  0  0  0  0  0  0  0  0  0  0  0
    2.4541   -0.9308    0.7105 C   0  0  1  0  0  0  0  0  0  0  0  0
    1.4884   -1.4737   -0.3512 C   0  0  0  0  0  0  0  0  0  0  0  0
    0.7577   -0.1150   -1.3437 S   0  0  0  0  0  0  0  0  0  0  0  0
   -0.6543    0.2314   -0.2394 C   0  0  0  0  0  0  0  0  0  0  0  0
   -1.9529   -1.0252   -0.4868 S   0  0  0  0  0  0  0  0  0  0  0  0
   -3.2143   -0.2056    0.5610 C   0  0  0  0  0  0  0  0  0  0  0  0
   -4.0489    0.8079   -0.2390 C   0  0  2  0  0  0  0  0  0  0  0  0
   -4.9743    1.5045    0.6563 N   0  0  0  0  0  0  0  0  0  0  0  0
   -4.8193    0.1129   -1.3277 C   0  0  0  0  0  0  0  0  0  0  0  0
   -5.8016   -0.6270   -1.0406 O   0  0  0  0  0  0  0  0  0  0  0  0
   -4.4401    0.2800   -2.6548 O   0  0  0  0  0  0  0  0  0  0  0  0
    2.9900   -2.0650    1.5382 C   0  0  0  0  0  0  0  0  0  0  0  0
    4.1380   -2.5424    1.3149 O   0  0  0  0  0  0  0  0  0  0  0  0
    2.1881   -2.6248    2.5292 O   0  0  0  0  0  0  0  0  0  0  0  0
    4.8495    1.6456   -1.5712 H   0  0  0  0  0  0  0  0  0  0  0  0
    5.8623    1.4854   -0.0796 H   0  0  0  0  0  0  0  0  0  0  0  0
    4.8672    2.9745   -0.3469 H   0  0  0  0  0  0  0  0  0  0  0  0
    4.1775   -0.7275   -0.5909 H   0  0  0  0  0  0  0  0  0  0  0  0
    1.8934   -0.2647    1.3984 H   0  0  0  0  0  0  0  0  0  0  0  0
    2.0374   -2.1516   -1.0417 H   0  0  0  0  0  0  0  0  0  0  0  0
    0.6868   -2.0740    0.1298 H   0  0  0  0  0  0  0  0  0  0  0  0
   -1.0532    1.2346   -0.4972 H   0  0  0  0  0  0  0  0  0  0  0  0
   -0.3306    0.2460    0.8216 H   0  0  0  0  0  0  0  0  0  0  0  0
   -3.8815   -0.9899    0.9794 H   0  0  0  0  0  0  0  0  0  0  0  0
   -2.7243    0.2996    1.4203 H   0  0  0  0  0  0  0  0  0  0  0  0
   -3.3685    1.5570   -0.7040 H   0  0  0  0  0  0  0  0  0  0  0  0
   -4.4144    2.0588    1.3459 H   0  0  0  0  0  0  0  0  0  0  0  0
   -5.5109    2.2070    0.0955 H   0  0  0  0  0  0  0  0  0  0  0  0
   -4.9410   -0.1876   -3.4002 H   0  0  0  0  0  0  0  0  0  0  0  0
    2.5149   -3.4077    3.0824 H   0  0  0  0  0  0  0  0  0  0  0  0
  1  2  1  0
  2  3  2  0
  2  4  1  0
  4  5  1  0
  5  6  1  0
  6  7  1  0
  7  8  1  0
  8  9  1  0
  9 10  1  0
 10 11  1  0
 11 12  1  0
 11 13  1  0
 13 14  2  0
 13 15  1  0
  5 16  1  0
 16 17  2  0
 16 18  1  0
  1 19  1  0
  1 20  1  0
  1 21  1  0
  4 22  1  0
  5 23  1  1
  6 24  1  0
  6 25  1  0
  8 26  1  0
  8 27  1  0
 10 28  1  0
 10 29  1  0
 11 30  1  6
 12 31  1  0
 12 32  1  0
 15 33  1  0
 18 34  1  0
M  END

     RDKit          3D

 39 40  0  0  0  0  0  0  0  0999 V2000
    4.4690   -1.8284    0.6464 C   0  0  0  0  0  0  0  0  0  0  0  0
    3.8627   -0.7863    0.0520 C   0  0  0  0  0  0  0  0  0  0  0  0
    4.6764    0.4222   -0.3489 C   0  0  0  0  0  0  0  0  0  0  0  0
    2.3636   -0.8272   -0.2138 C   0  0  2  0  0  0  0  0  0  0  0  0
    2.1030   -0.7228   -1.5919 O   0  0  0  0  0  0  0  0  0  0  0  0
    1.6173    0.2626    0.5843 C   0  0  0  0  0  0  0  0  0  0  0  0
    0.1149    0.0603    0.5140 C   0  0  0  0  0  0  0  0  0  0  0  0
   -0.6438    0.6999   -0.4771 C   0  0  0  0  0  0  0  0  0  0  0  0
   -0.0215    1.5838   -1.3658 O   0  0  0  0  0  0  0  0  0  0  0  0
   -0.0338    2.9898   -1.1452 C   0  0  0  0  0  0  0  0  0  0  0  0
   -2.0181    0.4367   -0.5828 C   0  0  0  0  0  0  0  0  0  0  0  0
   -2.7839    1.0198   -1.6114 C   0  0  0  0  0  0  0  0  0  0  0  0
   -4.1492    0.7641   -1.7105 C   0  0  0  0  0  0  0  0  0  0  0  0
   -4.7693   -0.0795   -0.7951 C   0  0  0  0  0  0  0  0  0  0  0  0
   -4.0269   -0.6812    0.2210 C   0  0  0  0  0  0  0  0  0  0  0  0
   -2.6354   -0.4415    0.3479 C   0  0  0  0  0  0  0  0  0  0  0  0
   -1.8803   -1.0439    1.3360 N   0  0  0  0  0  0  0  0  0  0  0  0
   -2.5197   -1.9522    2.3118 C   0  0  0  0  0  0  0  0  0  0  0  0
   -0.5245   -0.8193    1.4081 C   0  0  0  0  0  0  0  0  0  0  0  0
    0.1716   -1.4059    2.2843 O   0  0  0  0  0  0  0  0  0  0  0  0
    3.9096   -2.7088    0.9499 H   0  0  0  0  0  0  0  0  0  0  0  0
    5.5369   -1.8222    0.8404 H   0  0  0  0  0  0  0  0  0  0  0  0
    4.6374    0.5579   -1.4486 H   0  0  0  0  0  0  0  0  0  0  0  0
    4.2763    1.3309    0.1442 H   0  0  0  0  0  0  0  0  0  0  0  0
    5.7432    0.3199   -0.0561 H   0  0  0  0  0  0  0  0  0  0  0  0
    1.9637   -1.8125    0.1158 H   0  0  0  0  0  0  0  0  0  0  0  0
    2.3490    0.1947   -1.8819 H   0  0  0  0  0  0  0  0  0  0  0  0
    1.8947    1.2697    0.2103 H   0  0  0  0  0  0  0  0  0  0  0  0
    1.9473    0.2364    1.6462 H   0  0  0  0  0  0  0  0  0  0  0  0
   -1.0764    3.3707   -1.1274 H   0  0  0  0  0  0  0  0  0  0  0  0
    0.4598    3.2281   -0.1793 H   0  0  0  0  0  0  0  0  0  0  0  0
    0.5199    3.4913   -1.9647 H   0  0  0  0  0  0  0  0  0  0  0  0
   -2.3323    1.6686   -2.3508 H   0  0  0  0  0  0  0  0  0  0  0  0
   -4.7271    1.2195   -2.5038 H   0  0  0  0  0  0  0  0  0  0  0  0
   -5.8305   -0.2762   -0.8775 H   0  0  0  0  0  0  0  0  0  0  0  0
   -4.5590   -1.3367    0.8947 H   0  0  0  0  0  0  0  0  0  0  0  0
   -1.8170   -2.3385    3.0771 H   0  0  0  0  0  0  0  0  0  0  0  0
   -2.9489   -2.8313    1.7848 H   0  0  0  0  0  0  0  0  0  0  0  0
   -3.3188   -1.4128    2.8634 H   0  0  0  0  0  0  0  0  0  0  0  0
  1  2  2  3
  2  3  1  0
  2  4  1  0
  4  5  1  0
  4  6  1  0
  6  7  1  0
  7  8  2  0
  8  9  1  0
  9 10  1  0
  8 11  1  0
 11 12  2  0
 12 13  1  0
 13 14  2  0
 14 15  1  0
 15 16  2  0
 16 17  1  0
 17 18  1  0
 17 19  1  0
 19 20  2  0
 19  7  1  0
 16 11  1  0
  1 21  1  0
  1 22  1  0
  3 23  1  0
  3 24  1  0
  3 25  1  0
  4 26  1  1
  5 27  1  0
  6 28  1  0
  6 29  1  0
 10 30  1  0
 10 31  1  0
 10 32  1  0
 12 33  1  0
 13 34  1  0
 14 35  1  0
 15 36  1  0
 18 37  1  0
 18 38  1  0
 18 39  1  0
M  END

     RDKit          3D

 35 38  0  0  0  0  0  0  0  0999 V2000
   -1.1521    2.9599   -0.1883 C   0  0  0  0  0  0  0  0  0  0  0  0
   -0.8789    1.4803   -0.0545 C   0  0  0  0  0  0  0  0  0  0  0  0
   -1.9305    0.5427    0.1328 C   0  0  0  0  0  0  0  0  0  0  0  0
   -1.6362   -0.8385    0.3343 C   0  0  0  0  0  0  0  0  0  0  0  0
   -0.3005   -1.3194    0.2276 C   0  0  0  0  0  0  0  0  0  0  0  0
    0.0214   -2.7932    0.2543 C   0  0  0  0  0  0  0  0  0  0  0  0
    0.7158   -0.3654    0.0349 C   0  0  0  0  0  0  0  0  0  0  0  0
    0.4309    0.9825   -0.1294 C   0  0  0  0  0  0  0  0  0  0  0  0
    1.5581    1.6992   -0.3512 N   0  0  0  0  0  0  0  0  0  0  0  0
    2.5647    0.8088   -0.3019 C   0  0  0  0  0  0  0  0  0  0  0  0
    3.9233    1.0867   -0.4470 C   0  0  0  0  0  0  0  0  0  0  0  0
    4.8325    0.0247   -0.3222 C   0  0  0  0  0  0  0  0  0  0  0  0
    4.3725   -1.2777   -0.0439 C   0  0  0  0  0  0  0  0  0  0  0  0
    2.9978   -1.5358    0.1014 C   0  0  0  0  0  0  0  0  0  0  0  0
    2.1033   -0.4681   -0.0549 C   0  0  0  0  0  0  0  0  0  0  0  0
   -2.7649   -1.7373    0.6902 C   0  0  0  0  0  0  0  0  0  0  0  0
   -3.9936   -1.3706    0.4870 N   0  0  0  0  0  0  0  0  0  0  0  0
   -4.3286   -0.1308   -0.2076 C   0  0  0  0  0  0  0  0  0  0  0  0
   -3.3787    0.9953    0.2116 C   0  0  0  0  0  0  0  0  0  0  0  0
   -1.4148    3.1974   -1.2405 H   0  0  0  0  0  0  0  0  0  0  0  0
   -1.9816    3.2718    0.4796 H   0  0  0  0  0  0  0  0  0  0  0  0
   -0.2809    3.5711    0.1198 H   0  0  0  0  0  0  0  0  0  0  0  0
    0.4687   -3.0641    1.2329 H   0  0  0  0  0  0  0  0  0  0  0  0
    0.7171   -3.0401   -0.5729 H   0  0  0  0  0  0  0  0  0  0  0  0
   -0.8641   -3.4307    0.0708 H   0  0  0  0  0  0  0  0  0  0  0  0
    1.6534    2.7230   -0.5284 H   0  0  0  0  0  0  0  0  0  0  0  0
    4.2700    2.0929   -0.6435 H   0  0  0  0  0  0  0  0  0  0  0  0
    5.8935    0.2102   -0.4274 H   0  0  0  0  0  0  0  0  0  0  0  0
    5.0853   -2.0843    0.0681 H   0  0  0  0  0  0  0  0  0  0  0  0
    2.6771   -2.5329    0.3534 H   0  0  0  0  0  0  0  0  0  0  0  0
   -2.5884   -2.6710    1.2049 H   0  0  0  0  0  0  0  0  0  0  0  0
   -4.2424   -0.2960   -1.3036 H   0  0  0  0  0  0  0  0  0  0  0  0
   -5.3778    0.1502    0.0222 H   0  0  0  0  0  0  0  0  0  0  0  0
   -3.5668    1.8563   -0.4641 H   0  0  0  0  0  0  0  0  0  0  0  0
   -3.6044    1.3030    1.2554 H   0  0  0  0  0  0  0  0  0  0  0  0
  1  2  1  0
  2  3  2  0
  3  4  1  0
  4  5  2  0
  5  6  1  0
  5  7  1  0
  7  8  2  0
  8  9  1  0
  9 10  1  0
 10 11  2  0
 11 12  1  0
 12 13  2  0
 13 14  1  0
 14 15  2  0
  4 16  1  0
 16 17  2  0
 17 18  1  0
 18 19  1  0
  8  2  1  0
 15 10  1  0
 19  3  1  0
 15  7  1  0
  1 20  1  0
  1 21  1  0
  1 22  1  0
  6 23  1  0
  6 24  1  0
  6 25  1  0
  9 26  1  0
 11 27  1  0
 12 28  1  0
 13 29  1  0
 14 30  1  0
 16 31  1  0
 18 32  1  0
 18 33  1  0
 19 34  1  0
 19 35  1  0
M  END

     RDKit          3D

 56 58  0  0  0  0  0  0  0  0999 V2000
    2.7116    2.8458   -1.1132 C   0  0  0  0  0  0  0  0  0  0  0  0
    2.5819    2.4380    0.1540 C   0  0  0  0  0  0  0  0  0  0  0  0
    3.0998    1.0890    0.6287 C   0  0  1  0  0  0  0  0  0  0  0  0
    4.6343    1.1486    0.6649 C   0  0  0  0  0  0  0  0  0  0  0  0
    2.5887    0.8158    2.0831 C   0  0  0  0  0  0  0  0  0  0  0  0
    1.0797    0.5034    2.1509 C   0  0  0  0  0  0  0  0  0  0  0  0
    0.5580    0.0107    0.7826 C   0  0  2  0  0  0  0  0  0  0  0  0
   -0.8903   -0.6108    0.7386 C   0  0  1  0  0  0  0  0  0  0  0  0
   -0.9319   -1.9764    1.4788 C   0  0  0  0  0  0  0  0  0  0  0  0
   -1.8518    0.3590    1.5000 C   0  0  0  0  0  0  0  0  0  0  0  0
   -3.3457    0.0952    1.2873 C   0  0  0  0  0  0  0  0  0  0  0  0
   -3.7305   -0.3007   -0.1470 C   0  0  0  0  0  0  0  0  0  0  0  0
   -2.6345   -0.0448   -1.2182 C   0  0  2  0  0  0  0  0  0  0  0  0
   -2.3775    1.4828   -1.3952 C   0  0  0  0  0  0  0  0  0  0  0  0
   -3.1900   -0.5733   -2.5768 C   0  0  0  0  0  0  0  0  0  0  0  0
   -3.4359   -1.9524   -2.5287 O   0  0  0  0  0  0  0  0  0  0  0  0
   -1.3354   -0.8272   -0.7845 C   0  0  1  0  0  0  0  0  0  0  0  0
   -0.1680   -0.6431   -1.7986 C   0  0  0  0  0  0  0  0  0  0  0  0
    1.0915   -1.3640   -1.3152 C   0  0  0  0  0  0  0  0  0  0  0  0
    1.6698   -0.7922    0.0174 C   0  0  2  0  0  0  0  0  0  0  0  0
    2.2772   -1.9740    0.8465 C   0  0  0  0  0  0  0  0  0  0  0  0
    2.7393    0.0873   -0.3358 O   0  0  0  0  0  0  0  0  0  0  0  0
    3.2104    2.2256   -1.8519 H   0  0  0  0  0  0  0  0  0  0  0  0
    2.3163    3.8120   -1.4141 H   0  0  0  0  0  0  0  0  0  0  0  0
    2.0620    3.0898    0.8522 H   0  0  0  0  0  0  0  0  0  0  0  0
    4.9815    1.8975    1.4062 H   0  0  0  0  0  0  0  0  0  0  0  0
    5.0383    1.4188   -0.3327 H   0  0  0  0  0  0  0  0  0  0  0  0
    5.0509    0.1592    0.9462 H   0  0  0  0  0  0  0  0  0  0  0  0
    2.8086    1.6901    2.7404 H   0  0  0  0  0  0  0  0  0  0  0  0
    3.1492   -0.0360    2.5255 H   0  0  0  0  0  0  0  0  0  0  0  0
    0.5344    1.4302    2.4410 H   0  0  0  0  0  0  0  0  0  0  0  0
    0.9013   -0.2409    2.9530 H   0  0  0  0  0  0  0  0  0  0  0  0
    0.4397    0.9557    0.2083 H   0  0  0  0  0  0  0  0  0  0  0  0
   -1.9700   -2.3742    1.5031 H   0  0  0  0  0  0  0  0  0  0  0  0
   -0.5938   -1.8854    2.5307 H   0  0  0  0  0  0  0  0  0  0  0  0
   -0.3093   -2.7394    0.9703 H   0  0  0  0  0  0  0  0  0  0  0  0
   -1.6542    0.3098    2.5946 H   0  0  0  0  0  0  0  0  0  0  0  0
   -1.6452    1.4150    1.2321 H   0  0  0  0  0  0  0  0  0  0  0  0
   -3.6794   -0.7027    1.9876 H   0  0  0  0  0  0  0  0  0  0  0  0
   -3.9047    1.0125    1.5755 H   0  0  0  0  0  0  0  0  0  0  0  0
   -3.9822   -1.3864   -0.1368 H   0  0  0  0  0  0  0  0  0  0  0  0
   -4.6710    0.2288   -0.4246 H   0  0  0  0  0  0  0  0  0  0  0  0
   -1.4588    1.8302   -0.8751 H   0  0  0  0  0  0  0  0  0  0  0  0
   -3.2364    2.0873   -1.0211 H   0  0  0  0  0  0  0  0  0  0  0  0
   -2.2287    1.7656   -2.4652 H   0  0  0  0  0  0  0  0  0  0  0  0
   -4.1386   -0.0418   -2.8192 H   0  0  0  0  0  0  0  0  0  0  0  0
   -2.4835   -0.3525   -3.4083 H   0  0  0  0  0  0  0  0  0  0  0  0
   -3.7509   -2.2058   -3.4346 H   0  0  0  0  0  0  0  0  0  0  0  0
   -1.6035   -1.9057   -0.8857 H   0  0  0  0  0  0  0  0  0  0  0  0
   -0.4434   -1.0844   -2.7777 H   0  0  0  0  0  0  0  0  0  0  0  0
    0.0633    0.4258   -1.9848 H   0  0  0  0  0  0  0  0  0  0  0  0
    1.8652   -1.3108   -2.1107 H   0  0  0  0  0  0  0  0  0  0  0  0
    0.8215   -2.4376   -1.2270 H   0  0  0  0  0  0  0  0  0  0  0  0
    3.3650   -1.8243    1.0062 H   0  0  0  0  0  0  0  0  0  0  0  0
    1.8153   -2.0792    1.8465 H   0  0  0  0  0  0  0  0  0  0  0  0
    2.1901   -2.9636    0.3499 H   0  0  0  0  0  0  0  0  0  0  0  0
  1  2  2  3
  2  3  1  0
  3  4  1  1
  3  5  1  0
  5  6  1  0
  6  7  1  0
  7  8  1  0
  8  9  1  1
  8 10  1  0
 10 11  1  0
 11 12  1  0
 12 13  1  0
 13 14  1  6
 13 15  1  0
 15 16  1  0
 13 17  1  0
 17 18  1  0
 18 19  1  0
 19 20  1  0
 20 21  1  1
 20 22  1  0
 22  3  1  0
 20  7  1  0
 17  8  1  0
  1 23  1  0
  1 24  1  0
  2 25  1  0
  4 26  1  0
  4 27  1  0
  4 28  1  0
  5 29  1  0
  5 30  1  0
  6 31  1  0
  6 32  1  0
  7 33  1  6
  9 34  1  0
  9 35  1  0
  9 36  1  0
 10 37  1  0
 10 38  1  0
 11 39  1  0
 11 40  1  0
 12 41  1  0
 12 42  1  0
 14 43  1  0
 14 44  1  0
 14 45  1  0
 15 46  1  0
 15 47  1  0
 16 48  1  0
 17 49  1  1
 18 50  1  0
 18 51  1  0
 19 52  1  0
 19 53  1  0
 21 54  1  0
 21 55  1  0
 21 56  1  0
M  END

     RDKit          3D

 43 45  0  0  0  0  0  0  0  0999 V2000
    5.5099    0.1082   -1.2740 C   0  0  0  0  0  0  0  0  0  0  0  0
    4.1741    0.0280   -0.5892 C   0  0  0  0  0  0  0  0  0  0  0  0
    3.1263   -0.6712   -1.2016 C   0  0  0  0  0  0  0  0  0  0  0  0
    1.8786   -0.8081   -0.5685 C   0  0  0  0  0  0  0  0  0  0  0  0
    1.6698   -0.2333    0.7036 C   0  0  0  0  0  0  0  0  0  0  0  0
    2.7368    0.4517    1.3174 C   0  0  0  0  0  0  0  0  0  0  0  0
    3.9812    0.5771    0.6877 C   0  0  0  0  0  0  0  0  0  0  0  0
    5.0249    1.2415    1.3325 O   0  0  0  0  0  0  0  0  0  0  0  0
    0.4275   -0.4003    1.5079 C   0  0  0  0  0  0  0  0  0  0  0  0
   -0.8496   -0.6433    1.1174 C   0  0  0  0  0  0  0  0  0  0  0  0
   -1.9041   -0.7645    2.1922 C   0  0  0  0  0  0  0  0  0  0  0  0
   -2.8621    0.4352    2.1518 C   0  0  0  0  0  0  0  0  0  0  0  0
   -2.8699    1.1747    0.7954 C   0  0  0  0  0  0  0  0  0  0  0  0
   -2.7245    0.2324   -0.4398 C   0  0  0  0  0  0  0  0  0  0  0  0
   -2.7138    1.1449   -1.6970 C   0  0  0  0  0  0  0  0  0  0  0  0
   -3.9963   -0.6495   -0.5439 C   0  0  0  0  0  0  0  0  0  0  0  0
   -1.4282   -0.7025   -0.3030 C   0  0  1  0  0  0  0  0  0  0  0  0
   -0.4071   -0.5700   -1.4524 C   0  0  0  0  0  0  0  0  0  0  0  0
    0.7763   -1.5216   -1.2841 C   0  0  0  0  0  0  0  0  0  0  0  0
    6.1216   -0.7769   -0.9971 H   0  0  0  0  0  0  0  0  0  0  0  0
    5.3843    0.1320   -2.3757 H   0  0  0  0  0  0  0  0  0  0  0  0
    6.0555    1.0332   -0.9834 H   0  0  0  0  0  0  0  0  0  0  0  0
    3.2887   -1.1120   -2.1777 H   0  0  0  0  0  0  0  0  0  0  0  0
    2.6055    0.8867    2.3029 H   0  0  0  0  0  0  0  0  0  0  0  0
    4.9089    1.6467    2.2535 H   0  0  0  0  0  0  0  0  0  0  0  0
    0.5904   -0.3024    2.5752 H   0  0  0  0  0  0  0  0  0  0  0  0
   -2.4762   -1.7005    2.0209 H   0  0  0  0  0  0  0  0  0  0  0  0
   -1.4734   -0.8592    3.2114 H   0  0  0  0  0  0  0  0  0  0  0  0
   -2.5711    1.1607    2.9424 H   0  0  0  0  0  0  0  0  0  0  0  0
   -3.8903    0.0911    2.3958 H   0  0  0  0  0  0  0  0  0  0  0  0
   -3.8044    1.7756    0.7244 H   0  0  0  0  0  0  0  0  0  0  0  0
   -2.0224    1.8995    0.7951 H   0  0  0  0  0  0  0  0  0  0  0  0
   -2.6803    0.5474   -2.6327 H   0  0  0  0  0  0  0  0  0  0  0  0
   -1.8526    1.8489   -1.6769 H   0  0  0  0  0  0  0  0  0  0  0  0
   -3.6386    1.7635   -1.7397 H   0  0  0  0  0  0  0  0  0  0  0  0
   -4.0925   -1.3258    0.3303 H   0  0  0  0  0  0  0  0  0  0  0  0
   -4.9154   -0.0226   -0.5973 H   0  0  0  0  0  0  0  0  0  0  0  0
   -3.9521   -1.2822   -1.4562 H   0  0  0  0  0  0  0  0  0  0  0  0
   -1.7766   -1.7575   -0.3958 H   0  0  0  0  0  0  0  0  0  0  0  0
   -0.0530    0.4806   -1.5504 H   0  0  0  0  0  0  0  0  0  0  0  0
   -0.9126   -0.8442   -2.4039 H   0  0  0  0  0  0  0  0  0  0  0  0
    1.1117   -1.8540   -2.2912 H   0  0  0  0  0  0  0  0  0  0  0  0
    0.4953   -2.4400   -0.7263 H   0  0  0  0  0  0  0  0  0  0  0  0
  1  2  1  0
  2  3  2  0
  3  4  1  0
  4  5  2  0
  5  6  1  0
  6  7  2  0
  7  8  1  0
  5  9  1  0
  9 10  2  0
 10 11  1  0
 11 12  1  0
 12 13  1  0
 13 14  1  0
 14 15  1  0
 14 16  1  0
 14 17  1  0
 17 18  1  0
 18 19  1  0
  7  2  1  0
 17 10  1  0
 19  4  1  0
  1 20  1  0
  1 21  1  0
  1 22  1  0
  3 23  1  0
  6 24  1  0
  8 25  1  0
  9 26  1  0
 11 27  1  0
 11 28  1  0
 12 29  1  0
 12 30  1  0
 13 31  1  0
 13 32  1  0
 15 33  1  0
 15 34  1  0
 15 35  1  0
 16 36  1  0
 16 37  1  0
 16 38  1  0
 17 39  1  6
 18 40  1  0
 18 41  1  0
 19 42  1  0
 19 43  1  0
M  END

     RDKit          3D

 46 48  0  0  0  0  0  0  0  0999 V2000
    5.2560    2.1060   -1.2688 C   0  0  0  0  0  0  0  0  0  0  0  0
    5.1503    0.8324   -0.6368 O   0  0  0  0  0  0  0  0  0  0  0  0
    3.9404    0.2103   -0.2812 C   0  0  0  0  0  0  0  0  0  0  0  0
    2.6947    0.8026   -0.5488 C   0  0  0  0  0  0  0  0  0  0  0  0
    1.4767    0.1823   -0.1912 C   0  0  0  0  0  0  0  0  0  0  0  0
    1.5367   -1.1001    0.4200 C   0  0  0  0  0  0  0  0  0  0  0  0
    2.7887   -1.6830    0.6878 C   0  0  0  0  0  0  0  0  0  0  0  0
    3.9828   -1.0325    0.3629 C   0  0  0  0  0  0  0  0  0  0  0  0
    5.2997   -1.7017    0.6476 C   0  0  0  0  0  0  0  0  0  0  0  0
    0.3426   -1.8866    0.7528 C   0  0  0  0  0  0  0  0  0  0  0  0
    0.3855   -2.7450    1.6807 O   0  0  0  0  0  0  0  0  0  0  0  0
   -0.9288   -1.6825    0.0175 C   0  0  0  0  0  0  0  0  0  0  0  0
   -1.6435   -0.4311    0.5648 C   0  0  1  0  0  0  0  0  0  0  0  0
   -1.0524    0.8370   -0.0593 C   0  0  0  0  0  0  0  0  0  0  0  0
    0.2424    1.0082   -0.4363 C   0  0  0  0  0  0  0  0  0  0  0  0
   -1.9351    2.0683   -0.1507 C   0  0  1  0  0  0  0  0  0  0  0  0
   -2.4907    2.1651   -1.4384 O   0  0  0  0  0  0  0  0  0  0  0  0
   -3.0197    2.0274    0.9246 C   0  0  0  0  0  0  0  0  0  0  0  0
   -3.9440    0.8241    0.7517 C   0  0  0  0  0  0  0  0  0  0  0  0
   -3.2197   -0.5264    0.3922 C   0  0  0  0  0  0  0  0  0  0  0  0
   -3.5936   -0.9285   -1.0627 C   0  0  0  0  0  0  0  0  0  0  0  0
   -3.7921   -1.6143    1.3421 C   0  0  0  0  0  0  0  0  0  0  0  0
    6.3292    2.3458   -1.4176 H   0  0  0  0  0  0  0  0  0  0  0  0
    4.8000    2.8872   -0.6237 H   0  0  0  0  0  0  0  0  0  0  0  0
    4.7545    2.0867   -2.2622 H   0  0  0  0  0  0  0  0  0  0  0  0
    2.6717    1.7749   -1.0237 H   0  0  0  0  0  0  0  0  0  0  0  0
    2.8379   -2.6668    1.1389 H   0  0  0  0  0  0  0  0  0  0  0  0
    5.1898   -2.5159    1.3989 H   0  0  0  0  0  0  0  0  0  0  0  0
    5.7067   -2.1325   -0.2947 H   0  0  0  0  0  0  0  0  0  0  0  0
    6.0250   -0.9639    1.0577 H   0  0  0  0  0  0  0  0  0  0  0  0
   -0.7311   -1.5845   -1.0747 H   0  0  0  0  0  0  0  0  0  0  0  0
   -1.5312   -2.6019    0.1355 H   0  0  0  0  0  0  0  0  0  0  0  0
   -1.4468   -0.3548    1.6595 H   0  0  0  0  0  0  0  0  0  0  0  0
    0.4507    1.9579   -0.9184 H   0  0  0  0  0  0  0  0  0  0  0  0
   -1.3268    2.9819    0.0573 H   0  0  0  0  0  0  0  0  0  0  0  0
   -2.8820    3.0744   -1.5156 H   0  0  0  0  0  0  0  0  0  0  0  0
   -3.6194    2.9627    0.8905 H   0  0  0  0  0  0  0  0  0  0  0  0
   -2.5396    1.9828    1.9275 H   0  0  0  0  0  0  0  0  0  0  0  0
   -4.6986    1.0841   -0.0205 H   0  0  0  0  0  0  0  0  0  0  0  0
   -4.5224    0.7374    1.6981 H   0  0  0  0  0  0  0  0  0  0  0  0
   -3.2678   -1.9643   -1.2998 H   0  0  0  0  0  0  0  0  0  0  0  0
   -3.1229   -0.2471   -1.8002 H   0  0  0  0  0  0  0  0  0  0  0  0
   -4.6966   -0.9005   -1.2101 H   0  0  0  0  0  0  0  0  0  0  0  0
   -4.9045   -1.6151    1.3069 H   0  0  0  0  0  0  0  0  0  0  0  0
   -3.4801   -1.4214    2.3914 H   0  0  0  0  0  0  0  0  0  0  0  0
   -3.4727   -2.6392    1.0700 H   0  0  0  0  0  0  0  0  0  0  0  0
  1  2  1  0
  2  3  1  0
  3  4  2  0
  4  5  1  0
  5  6  2  0
  6  7  1  0
  7  8  2  0
  8  9  1  0
  6 10  1  0
 10 11  2  0
 10 12  1  0
 12 13  1  0
 13 14  1  0
 14 15  2  0
 14 16  1  0
 16 17  1  0
 16 18  1  0
 18 19  1  0
 19 20  1  0
 20 21  1  0
 20 22  1  0
  8  3  1  0
 20 13  1  0
 15  5  1  0
  1 23  1  0
  1 24  1  0
  1 25  1  0
  4 26  1  0
  7 27  1  0
  9 28  1  0
  9 29  1  0
  9 30  1  0
 12 31  1  0
 12 32  1  0
 13 33  1  1
 15 34  1  0
 16 35  1  1
 17 36  1  0
 18 37  1  0
 18 38  1  0
 19 39  1  0
 19 40  1  0
 21 41  1  0
 21 42  1  0
 21 43  1  0
 22 44  1  0
 22 45  1  0
 22 46  1  0
M  END

     RDKit          3D

 44 46  0  0  0  0  0  0  0  0999 V2000
    5.0416    1.8294   -0.9636 C   0  0  0  0  0  0  0  0  0  0  0  0
    4.7251    1.1385    0.2435 O   0  0  0  0  0  0  0  0  0  0  0  0
    3.5561    0.3930    0.4520 C   0  0  0  0  0  0  0  0  0  0  0  0
    2.5839    0.2431   -0.5522 C   0  0  0  0  0  0  0  0  0  0  0  0
    1.4025   -0.4713   -0.3190 C   0  0  0  0  0  0  0  0  0  0  0  0
    1.1990   -1.0923    0.9386 C   0  0  0  0  0  0  0  0  0  0  0  0
    2.1876   -0.9592    1.9294 C   0  0  0  0  0  0  0  0  0  0  0  0
    3.3554   -0.2236    1.6977 C   0  0  0  0  0  0  0  0  0  0  0  0
    4.3717   -0.0638    2.7930 C   0  0  0  0  0  0  0  0  0  0  0  0
    0.0030   -1.9262    1.2469 C   0  0  0  0  0  0  0  0  0  0  0  0
    0.1556   -2.9672    1.9478 O   0  0  0  0  0  0  0  0  0  0  0  0
   -1.4044   -1.5612    0.8297 C   0  0  0  0  0  0  0  0  0  0  0  0
   -1.5046   -0.2279    0.0487 C   0  0  1  0  0  0  0  0  0  0  0  0
   -0.8850   -0.4654   -1.3217 C   0  0  0  0  0  0  0  0  0  0  0  0
    0.4501   -0.5816   -1.4467 C   0  0  0  0  0  0  0  0  0  0  0  0
   -1.7543   -0.6806   -2.5173 C   0  0  0  0  0  0  0  0  0  0  0  0
   -1.2376   -0.9710   -3.6317 O   0  0  0  0  0  0  0  0  0  0  0  0
   -3.2323   -0.4373   -2.4761 C   0  0  0  0  0  0  0  0  0  0  0  0
   -3.7997   -0.4507   -1.0535 C   0  0  0  0  0  0  0  0  0  0  0  0
   -2.9494    0.3764   -0.0583 C   0  0  0  0  0  0  0  0  0  0  0  0
   -2.8465    1.8511   -0.5302 C   0  0  0  0  0  0  0  0  0  0  0  0
   -3.6770    0.3937    1.3083 C   0  0  0  0  0  0  0  0  0  0  0  0
    5.1257    1.1108   -1.8088 H   0  0  0  0  0  0  0  0  0  0  0  0
    4.2652    2.5970   -1.1757 H   0  0  0  0  0  0  0  0  0  0  0  0
    6.0162    2.3399   -0.8459 H   0  0  0  0  0  0  0  0  0  0  0  0
    2.7290    0.7030   -1.5196 H   0  0  0  0  0  0  0  0  0  0  0  0
    2.0381   -1.4248    2.8957 H   0  0  0  0  0  0  0  0  0  0  0  0
    4.3778    0.9919    3.1391 H   0  0  0  0  0  0  0  0  0  0  0  0
    4.1461   -0.7228    3.6613 H   0  0  0  0  0  0  0  0  0  0  0  0
    5.3838   -0.3321    2.4081 H   0  0  0  0  0  0  0  0  0  0  0  0
   -1.9952   -1.5122    1.7637 H   0  0  0  0  0  0  0  0  0  0  0  0
   -1.8183   -2.3962    0.2183 H   0  0  0  0  0  0  0  0  0  0  0  0
   -0.9022    0.5326    0.5969 H   0  0  0  0  0  0  0  0  0  0  0  0
    0.8838   -0.7027   -2.4339 H   0  0  0  0  0  0  0  0  0  0  0  0
   -3.4437    0.5412   -2.9511 H   0  0  0  0  0  0  0  0  0  0  0  0
   -3.7566   -1.2165   -3.0711 H   0  0  0  0  0  0  0  0  0  0  0  0
   -3.8661   -1.5069   -0.7072 H   0  0  0  0  0  0  0  0  0  0  0  0
   -4.8396   -0.0530   -1.0839 H   0  0  0  0  0  0  0  0  0  0  0  0
   -2.3836    2.4815    0.2632 H   0  0  0  0  0  0  0  0  0  0  0  0
   -3.8566    2.2630   -0.7528 H   0  0  0  0  0  0  0  0  0  0  0  0
   -2.2172    1.9555   -1.4440 H   0  0  0  0  0  0  0  0  0  0  0  0
   -3.0178    0.8166    2.1023 H   0  0  0  0  0  0  0  0  0  0  0  0
   -4.6000    1.0123    1.2507 H   0  0  0  0  0  0  0  0  0  0  0  0
   -4.0098   -0.6241    1.6080 H   0  0  0  0  0  0  0  0  0  0  0  0
  1  2  1  0
  2  3  1  0
  3  4  2  0
  4  5  1  0
  5  6  2  0
  6  7  1  0
  7  8  2  0
  8  9  1  0
  6 10  1  0
 10 11  2  0
 10 12  1  0
 12 13  1  0
 13 14  1  0
 14 15  2  0
 14 16  1  0
 16 17  2  0
 16 18  1  0
 18 19  1  0
 19 20  1  0
 20 21  1  0
 20 22  1  0
  8  3  1  0
 20 13  1  0
 15  5  1  0
  1 23  1  0
  1 24  1  0
  1 25  1  0
  4 26  1  0
  7 27  1  0
  9 28  1  0
  9 29  1  0
  9 30  1  0
 12 31  1  0
 12 32  1  0
 13 33  1  1
 15 34  1  0
 18 35  1  0
 18 36  1  0
 19 37  1  0
 19 38  1  0
 21 39  1  0
 21 40  1  0
 21 41  1  0
 22 42  1  0
 22 43  1  0
 22 44  1  0
M  END

     RDKit          3D

 48 51  0  0  0  0  0  0  0  0999 V2000
    1.9806   -2.5003    3.5339 C   0  0  0  0  0  0  0  0  0  0  0  0
    0.9762   -1.8807    2.7375 O   0  0  0  0  0  0  0  0  0  0  0  0
    0.9266   -2.0093    1.3432 C   0  0  0  0  0  0  0  0  0  0  0  0
    1.7593   -2.7438    0.7471 O   0  0  0  0  0  0  0  0  0  0  0  0
   -0.0913   -1.2684    0.5590 C   0  0  0  0  0  0  0  0  0  0  0  0
   -1.2256   -0.8611    1.1656 C   0  0  0  0  0  0  0  0  0  0  0  0
   -2.3196   -0.1274    0.4872 C   0  0  0  0  0  0  0  0  0  0  0  0
   -3.6461   -0.6128    0.6116 C   0  0  0  0  0  0  0  0  0  0  0  0
   -4.7081    0.0360   -0.0436 C   0  0  0  0  0  0  0  0  0  0  0  0
   -4.4155    1.1604   -0.8074 C   0  0  0  0  0  0  0  0  0  0  0  0
   -3.1528    1.6466   -0.9147 C   0  0  0  0  0  0  0  0  0  0  0  0
   -2.0710    1.0405   -0.2793 C   0  0  0  0  0  0  0  0  0  0  0  0
   -3.1630    2.7706   -1.7153 O   0  0  0  0  0  0  0  0  0  0  0  0
   -4.5106    2.9947   -2.1522 C   0  0  0  0  0  0  0  0  0  0  0  0
   -5.2815    1.9506   -1.5347 O   0  0  0  0  0  0  0  0  0  0  0  0
    0.1371   -1.0505   -0.9003 C   0  0  0  0  0  0  0  0  0  0  0  0
    1.2511   -0.4472   -1.3633 C   0  0  0  0  0  0  0  0  0  0  0  0
    2.3208    0.1026   -0.5036 C   0  0  0  0  0  0  0  0  0  0  0  0
    3.6663   -0.2618   -0.7682 C   0  0  0  0  0  0  0  0  0  0  0  0
    4.7103    0.2194    0.0417 C   0  0  0  0  0  0  0  0  0  0  0  0
    4.3827    1.0815    1.0803 C   0  0  0  0  0  0  0  0  0  0  0  0
    3.1017    1.4586    1.3235 C   0  0  0  0  0  0  0  0  0  0  0  0
    2.0361    0.9993    0.5541 C   0  0  0  0  0  0  0  0  0  0  0  0
    3.0738    2.3125    2.4102 O   0  0  0  0  0  0  0  0  0  0  0  0
    4.4182    2.4814    2.8759 C   0  0  0  0  0  0  0  0  0  0  0  0
    5.2230    1.6758    2.0002 O   0  0  0  0  0  0  0  0  0  0  0  0
   -0.8602   -1.5693   -1.8649 C   0  0  0  0  0  0  0  0  0  0  0  0
   -1.6594   -2.4773   -1.5082 O   0  0  0  0  0  0  0  0  0  0  0  0
   -0.9283   -1.0410   -3.1592 O   0  0  0  0  0  0  0  0  0  0  0  0
   -1.9210   -1.4362   -4.0972 C   0  0  0  0  0  0  0  0  0  0  0  0
    1.8088   -2.2424    4.6045 H   0  0  0  0  0  0  0  0  0  0  0  0
    2.9901   -2.1360    3.2318 H   0  0  0  0  0  0  0  0  0  0  0  0
    1.9242   -3.6100    3.4170 H   0  0  0  0  0  0  0  0  0  0  0  0
   -1.4016   -1.1550    2.1934 H   0  0  0  0  0  0  0  0  0  0  0  0
   -3.8575   -1.4988    1.2058 H   0  0  0  0  0  0  0  0  0  0  0  0
   -5.7233   -0.3307    0.0327 H   0  0  0  0  0  0  0  0  0  0  0  0
   -1.0791    1.4606   -0.3817 H   0  0  0  0  0  0  0  0  0  0  0  0
   -4.8630    3.9896   -1.8050 H   0  0  0  0  0  0  0  0  0  0  0  0
   -4.5724    2.9161   -3.2614 H   0  0  0  0  0  0  0  0  0  0  0  0
    1.4303   -0.4153   -2.4313 H   0  0  0  0  0  0  0  0  0  0  0  0
    3.8957   -0.9429   -1.5764 H   0  0  0  0  0  0  0  0  0  0  0  0
    5.7388   -0.0697   -0.1338 H   0  0  0  0  0  0  0  0  0  0  0  0
    1.0295    1.3307    0.7634 H   0  0  0  0  0  0  0  0  0  0  0  0
    4.7121    3.5542    2.8050 H   0  0  0  0  0  0  0  0  0  0  0  0
    4.5039    2.1134    3.9187 H   0  0  0  0  0  0  0  0  0  0  0  0
   -2.9353   -1.2524   -3.6812 H   0  0  0  0  0  0  0  0  0  0  0  0
   -1.8126   -2.5200   -4.3446 H   0  0  0  0  0  0  0  0  0  0  0  0
   -1.7984   -0.8345   -5.0218 H   0  0  0  0  0  0  0  0  0  0  0  0
  1  2  1  0
  2  3  1  0
  3  4  2  0
  3  5  1  0
  5  6  2  0
  6  7  1  0
  7  8  2  0
  8  9  1  0
  9 10  2  0
 10 11  1  0
 11 12  2  0
 11 13  1  0
 13 14  1  0
 14 15  1  0
  5 16  1  0
 16 17  2  0
 17 18  1  0
 18 19  2  0
 19 20  1  0
 20 21  2  0
 21 22  1  0
 22 23  2  0
 22 24  1  0
 24 25  1  0
 25 26  1  0
 16 27  1  0
 27 28  2  0
 27 29  1  0
 29 30  1  0
 12  7  1  0
 23 18  1  0
 15 10  1  0
 26 21  1  0
  1 31  1  0
  1 32  1  0
  1 33  1  0
  6 34  1  0
  8 35  1  0
  9 36  1  0
 12 37  1  0
 14 38  1  0
 14 39  1  0
 17 40  1  0
 19 41  1  0
 20 42  1  0
 23 43  1  0
 25 44  1  0
 25 45  1  0
 30 46  1  0
 30 47  1  0
 30 48  1  0
M  END

     RDKit          3D

 46 48  0  0  0  0  0  0  0  0999 V2000
    4.3828   -2.2407    3.0660 C   0  0  0  0  0  0  0  0  0  0  0  0
    4.8272   -1.2977    2.0950 O   0  0  0  0  0  0  0  0  0  0  0  0
    3.9790   -0.5964    1.2233 C   0  0  0  0  0  0  0  0  0  0  0  0
    2.5873   -0.8108    1.1949 C   0  0  0  0  0  0  0  0  0  0  0  0
    1.7639   -0.0674    0.3330 C   0  0  0  0  0  0  0  0  0  0  0  0
    0.2964   -0.2773    0.2746 C   0  0  0  0  0  0  0  0  0  0  0  0
   -0.2940   -0.1845   -0.9138 O   0  0  0  0  0  0  0  0  0  0  0  0
   -1.6001   -0.3303   -1.0965 C   0  0  0  0  0  0  0  0  0  0  0  0
   -2.1227   -0.1890   -2.3820 C   0  0  0  0  0  0  0  0  0  0  0  0
   -3.4912   -0.3458   -2.6167 C   0  0  0  0  0  0  0  0  0  0  0  0
   -3.9920   -0.2405   -3.9139 O   0  0  0  0  0  0  0  0  0  0  0  0
   -4.3570   -0.6251   -1.5468 C   0  0  0  0  0  0  0  0  0  0  0  0
   -5.7303   -0.7746   -1.7739 O   0  0  0  0  0  0  0  0  0  0  0  0
   -6.5544    0.3021   -2.2023 C   0  0  0  0  0  0  0  0  0  0  0  0
   -3.8445   -0.7700   -0.2375 C   0  0  0  0  0  0  0  0  0  0  0  0
   -4.7107   -1.0643    0.8217 O   0  0  0  0  0  0  0  0  0  0  0  0
   -2.4536   -0.6126   -0.0047 C   0  0  0  0  0  0  0  0  0  0  0  0
   -1.8679   -0.7148    1.2765 C   0  0  0  0  0  0  0  0  0  0  0  0
   -2.5732   -0.9865    2.2877 O   0  0  0  0  0  0  0  0  0  0  0  0
   -0.4826   -0.5196    1.4267 C   0  0  0  0  0  0  0  0  0  0  0  0
    0.1195   -0.5513    2.6916 O   0  0  0  0  0  0  0  0  0  0  0  0
   -0.2257    0.3655    3.7243 C   0  0  0  0  0  0  0  0  0  0  0  0
    2.3496    0.8693   -0.5306 C   0  0  0  0  0  0  0  0  0  0  0  0
    3.7383    1.0842   -0.5258 C   0  0  0  0  0  0  0  0  0  0  0  0
    4.3465    2.0083   -1.3892 O   0  0  0  0  0  0  0  0  0  0  0  0
    3.6616    2.7811   -2.3680 C   0  0  0  0  0  0  0  0  0  0  0  0
    4.5487    0.3493    0.3613 C   0  0  0  0  0  0  0  0  0  0  0  0
    5.9319    0.5456    0.3988 O   0  0  0  0  0  0  0  0  0  0  0  0
    3.9117   -3.1146    2.5644 H   0  0  0  0  0  0  0  0  0  0  0  0
    3.6618   -1.7601    3.7623 H   0  0  0  0  0  0  0  0  0  0  0  0
    5.2565   -2.5962    3.6501 H   0  0  0  0  0  0  0  0  0  0  0  0
    2.1536   -1.5899    1.8072 H   0  0  0  0  0  0  0  0  0  0  0  0
   -1.4591    0.0381   -3.2034 H   0  0  0  0  0  0  0  0  0  0  0  0
   -3.3825   -0.0453   -4.6996 H   0  0  0  0  0  0  0  0  0  0  0  0
   -6.1580    0.7630   -3.1330 H   0  0  0  0  0  0  0  0  0  0  0  0
   -7.5722   -0.0820   -2.4051 H   0  0  0  0  0  0  0  0  0  0  0  0
   -6.6111    1.0686   -1.4019 H   0  0  0  0  0  0  0  0  0  0  0  0
   -5.7071   -1.1892    0.6921 H   0  0  0  0  0  0  0  0  0  0  0  0
   -1.2956    0.2653    4.0074 H   0  0  0  0  0  0  0  0  0  0  0  0
    0.3987    0.1530    4.6158 H   0  0  0  0  0  0  0  0  0  0  0  0
   -0.0269    1.4033    3.3799 H   0  0  0  0  0  0  0  0  0  0  0  0
    1.7177    1.4279   -1.2072 H   0  0  0  0  0  0  0  0  0  0  0  0
    3.1511    2.1118   -3.0918 H   0  0  0  0  0  0  0  0  0  0  0  0
    2.9220    3.4469   -1.8771 H   0  0  0  0  0  0  0  0  0  0  0  0
    4.4013    3.4030   -2.9142 H   0  0  0  0  0  0  0  0  0  0  0  0
    6.4054    1.1904   -0.2199 H   0  0  0  0  0  0  0  0  0  0  0  0
  1  2  1  0
  2  3  1  0
  3  4  2  0
  4  5  1  0
  5  6  1  0
  6  7  1  0
  7  8  1  0
  8  9  2  0
  9 10  1  0
 10 11  1  0
 10 12  2  0
 12 13  1  0
 13 14  1  0
 12 15  1  0
 15 16  1  0
 15 17  2  0
 17 18  1  0
 18 19  2  0
 18 20  1  0
 20 21  1  0
 21 22  1  0
  5 23  2  0
 23 24  1  0
 24 25  1  0
 25 26  1  0
 24 27  2  0
 27 28  1  0
 27  3  1  0
 20  6  2  0
 17  8  1  0
  1 29  1  0
  1 30  1  0
  1 31  1  0
  4 32  1  0
  9 33  1  0
 11 34  1  0
 14 35  1  0
 14 36  1  0
 14 37  1  0
 16 38  1  0
 22 39  1  0
 22 40  1  0
 22 41  1  0
 23 42  1  0
 26 43  1  0
 26 44  1  0
 26 45  1  0
 28 46  1  0
M  END

     RDKit          3D

 28 28  0  0  0  0  0  0  0  0999 V2000
   -3.1735    1.4693   -0.8847 C   0  0  0  0  0  0  0  0  0  0  0  0
   -2.6582    0.1734   -0.2475 C   0  0  0  0  0  0  0  0  0  0  0  0
   -3.1479    0.0371    1.1991 C   0  0  0  0  0  0  0  0  0  0  0  0
   -1.1450    0.0912   -0.3225 C   0  0  0  0  0  0  0  0  0  0  0  0
   -0.3323    1.0432    0.3215 C   0  0  0  0  0  0  0  0  0  0  0  0
    1.0604    0.9549    0.2455 C   0  0  0  0  0  0  0  0  0  0  0  0
    1.6666   -0.0807   -0.4812 C   0  0  0  0  0  0  0  0  0  0  0  0
    3.1679   -0.1952   -0.5382 C   0  0  0  0  0  0  0  0  0  0  0  0
    3.6940   -1.1392    0.5429 C   0  0  0  0  0  0  0  0  0  0  0  0
    3.4266   -0.6134    1.8136 O   0  0  0  0  0  0  0  0  0  0  0  0
    0.8606   -1.0377   -1.1155 C   0  0  0  0  0  0  0  0  0  0  0  0
   -0.5323   -0.9507   -1.0402 C   0  0  0  0  0  0  0  0  0  0  0  0
   -2.8079    1.5506   -1.9307 H   0  0  0  0  0  0  0  0  0  0  0  0
   -2.8330    2.3597   -0.3148 H   0  0  0  0  0  0  0  0  0  0  0  0
   -4.2842    1.4672   -0.9048 H   0  0  0  0  0  0  0  0  0  0  0  0
   -3.1035   -0.6698   -0.8216 H   0  0  0  0  0  0  0  0  0  0  0  0
   -2.7643   -0.9062    1.6435 H   0  0  0  0  0  0  0  0  0  0  0  0
   -2.8067    0.8921    1.8204 H   0  0  0  0  0  0  0  0  0  0  0  0
   -4.2581    0.0056    1.2230 H   0  0  0  0  0  0  0  0  0  0  0  0
   -0.7742    1.8541    0.8859 H   0  0  0  0  0  0  0  0  0  0  0  0
    1.6663    1.6940    0.7551 H   0  0  0  0  0  0  0  0  0  0  0  0
    3.6380    0.8053   -0.4169 H   0  0  0  0  0  0  0  0  0  0  0  0
    3.4745   -0.5795   -1.5354 H   0  0  0  0  0  0  0  0  0  0  0  0
    4.7929   -1.2559    0.4134 H   0  0  0  0  0  0  0  0  0  0  0  0
    3.2170   -2.1394    0.4348 H   0  0  0  0  0  0  0  0  0  0  0  0
    3.7760   -1.2761    2.4643 H   0  0  0  0  0  0  0  0  0  0  0  0
    1.3119   -1.8531   -1.6675 H   0  0  0  0  0  0  0  0  0  0  0  0
   -1.1316   -1.7007   -1.5413 H   0  0  0  0  0  0  0  0  0  0  0  0
  1  2  1  0
  2  3  1  0
  2  4  1  0
  4  5  2  0
  5  6  1  0
  6  7  2  0
  7  8  1  0
  8  9  1  0
  9 10  1  0
  7 11  1  0
 11 12  2  0
 12  4  1  0
  1 13  1  0
  1 14  1  0
  1 15  1  0
  2 16  1  0
  3 17  1  0
  3 18  1  0
  3 19  1  0
  5 20  1  0
  6 21  1  0
  8 22  1  0
  8 23  1  0
  9 24  1  0
  9 25  1  0
 10 26  1  0
 11 27  1  0
 12 28  1  0
M  END

     RDKit          3D

 26 28  0  0  0  0  0  0  0  0999 V2000
   -2.9045    0.0593    1.9706 O   0  0  0  0  0  0  0  0  0  0  0  0
   -2.4918    0.7789    0.8350 C   0  0  2  0  0  0  0  0  0  0  0  0
   -3.2612    0.3434   -0.4336 C   0  0  0  0  0  0  0  0  0  0  0  0
   -2.2574   -0.3990   -1.3429 C   0  0  0  0  0  0  0  0  0  0  0  0
   -0.9499   -0.1670   -0.7593 N   0  0  0  0  0  0  0  0  0  0  0  0
    0.3057   -0.7357   -1.2487 C   0  0  0  0  0  0  0  0  0  0  0  0
    1.4748   -0.2994   -0.3951 C   0  0  0  0  0  0  0  0  0  0  0  0
    2.7823   -0.6269   -0.7835 C   0  0  0  0  0  0  0  0  0  0  0  0
    3.8677   -0.2567    0.0161 C   0  0  0  0  0  0  0  0  0  0  0  0
    3.6552    0.4361    1.2111 C   0  0  0  0  0  0  0  0  0  0  0  0
    2.3564    0.7623    1.6115 C   0  0  0  0  0  0  0  0  0  0  0  0
    1.2630    0.3995    0.8166 C   0  0  0  0  0  0  0  0  0  0  0  0
   -0.0633    0.7462    1.2379 N   0  0  0  0  0  0  0  0  0  0  0  0
   -1.0853    0.4733    0.4902 C   0  0  0  0  0  0  0  0  0  0  0  0
   -2.7790   -0.9085    1.7819 H   0  0  0  0  0  0  0  0  0  0  0  0
   -2.6152    1.8680    1.0180 H   0  0  0  0  0  0  0  0  0  0  0  0
   -4.1277   -0.3086   -0.1873 H   0  0  0  0  0  0  0  0  0  0  0  0
   -3.6415    1.2447   -0.9626 H   0  0  0  0  0  0  0  0  0  0  0  0
   -2.2898   -0.0048   -2.3813 H   0  0  0  0  0  0  0  0  0  0  0  0
   -2.4753   -1.4889   -1.3457 H   0  0  0  0  0  0  0  0  0  0  0  0
    0.2363   -1.8442   -1.2256 H   0  0  0  0  0  0  0  0  0  0  0  0
    0.4682   -0.4091   -2.2981 H   0  0  0  0  0  0  0  0  0  0  0  0
    2.9593   -1.1707   -1.7033 H   0  0  0  0  0  0  0  0  0  0  0  0
    4.8746   -0.5104   -0.2892 H   0  0  0  0  0  0  0  0  0  0  0  0
    4.4980    0.7194    1.8282 H   0  0  0  0  0  0  0  0  0  0  0  0
    2.2003    1.2987    2.5390 H   0  0  0  0  0  0  0  0  0  0  0  0
  1  2  1  0
  2  3  1  0
  3  4  1  0
  4  5  1  0
  5  6  1  0
  6  7  1  0
  7  8  2  0
  8  9  1  0
  9 10  2  0
 10 11  1  0
 11 12  2  0
 12 13  1  0
 13 14  2  0
 14  2  1  0
 14  5  1  0
 12  7  1  0
  1 15  1  0
  2 16  1  1
  3 17  1  0
  3 18  1  0
  4 19  1  0
  4 20  1  0
  6 21  1  0
  6 22  1  0
  8 23  1  0
  9 24  1  0
 10 25  1  0
 11 26  1  0
M  END

     RDKit          3D

 29 31  0  0  0  0  0  0  0  0999 V2000
    4.0556   -0.1248   -0.0154 C   0  0  0  0  0  0  0  0  0  0  0  0
    2.6309    0.0553    0.3005 N   0  0  0  0  0  0  0  0  0  0  0  0
    2.1639    1.3731   -0.1851 C   0  0  0  0  0  0  0  0  0  0  0  0
    0.7271    1.6391    0.2943 C   0  0  0  0  0  0  0  0  0  0  0  0
   -0.1253    0.4236    0.0834 C   0  0  0  0  0  0  0  0  0  0  0  0
    0.3689   -0.7956   -0.1130 C   0  0  0  0  0  0  0  0  0  0  0  0
   -0.7161   -1.8291   -0.2548 C   0  0  0  0  0  0  0  0  0  0  0  0
   -1.9276   -0.9826   -0.0352 C   0  0  0  0  0  0  0  0  0  0  0  0
   -3.2670   -1.3731   -0.0145 C   0  0  0  0  0  0  0  0  0  0  0  0
   -4.2465   -0.3918    0.2165 C   0  0  0  0  0  0  0  0  0  0  0  0
   -3.8740    0.9523    0.4217 C   0  0  0  0  0  0  0  0  0  0  0  0
   -2.5196    1.3249    0.3965 C   0  0  0  0  0  0  0  0  0  0  0  0
   -1.5685    0.3312    0.1638 C   0  0  0  0  0  0  0  0  0  0  0  0
    1.8378   -1.0395   -0.3038 C   0  0  0  0  0  0  0  0  0  0  0  0
    4.4074   -1.1127    0.3527 H   0  0  0  0  0  0  0  0  0  0  0  0
    4.6608    0.6524    0.4986 H   0  0  0  0  0  0  0  0  0  0  0  0
    4.2379   -0.0600   -1.1115 H   0  0  0  0  0  0  0  0  0  0  0  0
    2.8158    2.1836    0.2098 H   0  0  0  0  0  0  0  0  0  0  0  0
    2.1979    1.4148   -1.2983 H   0  0  0  0  0  0  0  0  0  0  0  0
    0.7372    1.8824    1.3783 H   0  0  0  0  0  0  0  0  0  0  0  0
    0.3007    2.5012   -0.2615 H   0  0  0  0  0  0  0  0  0  0  0  0
   -0.7175   -2.2654   -1.2760 H   0  0  0  0  0  0  0  0  0  0  0  0
   -0.6256   -2.6100    0.5294 H   0  0  0  0  0  0  0  0  0  0  0  0
   -3.5456   -2.4070   -0.1717 H   0  0  0  0  0  0  0  0  0  0  0  0
   -5.2922   -0.6700    0.2376 H   0  0  0  0  0  0  0  0  0  0  0  0
   -4.6349    1.7011    0.5996 H   0  0  0  0  0  0  0  0  0  0  0  0
   -2.2254    2.3544    0.5535 H   0  0  0  0  0  0  0  0  0  0  0  0
    2.0423   -1.1249   -1.3949 H   0  0  0  0  0  0  0  0  0  0  0  0
    2.1015   -2.0029    0.1839 H   0  0  0  0  0  0  0  0  0  0  0  0
  1  2  1  0
  2  3  1  0
  3  4  1  0
  4  5  1  0
  5  6  2  0
  6  7  1  0
  7  8  1  0
  8  9  2  0
  9 10  1  0
 10 11  2  0
 11 12  1  0
 12 13  2  0
  6 14  1  0
 14  2  1  0
 13  5  1  0
 13  8  1  0
  1 15  1  0
  1 16  1  0
  1 17  1  0
  3 18  1  0
  3 19  1  0
  4 20  1  0
  4 21  1  0
  7 22  1  0
  7 23  1  0
  9 24  1  0
 10 25  1  0
 11 26  1  0
 12 27  1  0
 14 28  1  0
 14 29  1  0
M  END

     RDKit          3D

 51 53  0  0  0  0  0  0  0  0999 V2000
    0.4168    2.0111    2.2891 C   0  0  0  0  0  0  0  0  0  0  0  0
    0.1708    1.5909    0.8214 C   0  0  2  0  0  0  0  0  0  0  0  0
   -1.1798    2.1815    0.3309 C   0  0  0  0  0  0  0  0  0  0  0  0
   -2.3423    1.2239    0.5717 C   0  0  0  0  0  0  0  0  0  0  0  0
   -2.2190   -0.1049   -0.2508 C   0  0  1  0  0  0  0  0  0  0  0  0
   -2.9201   -1.2402    0.5536 C   0  0  0  0  0  0  0  0  0  0  0  0
   -2.9412   -0.0526   -1.6061 C   0  0  0  0  0  0  0  0  0  0  0  0
   -4.1594    0.7600   -1.8306 C   0  0  0  0  0  0  0  0  0  0  0  0
   -4.3574    1.3015   -2.9535 O   0  0  0  0  0  0  0  0  0  0  0  0
   -5.1294    0.8683   -0.8372 O   0  0  0  0  0  0  0  0  0  0  0  0
   -2.5828   -0.9187   -2.5792 C   0  0  0  0  0  0  0  0  0  0  0  0
   -1.5112   -1.9821   -2.4196 C   0  0  0  0  0  0  0  0  0  0  0  0
   -0.5398   -1.7821   -1.2317 C   0  0  0  0  0  0  0  0  0  0  0  0
   -0.6981   -0.3871   -0.5830 C   0  0  2  0  0  0  0  0  0  0  0  0
    0.3499    0.0273    0.5346 C   0  0  2  0  0  0  0  0  0  0  0  0
    0.1558   -0.8417    1.8102 C   0  0  0  0  0  0  0  0  0  0  0  0
    1.7972   -0.2422   -0.0212 C   0  0  0  0  0  0  0  0  0  0  0  0
    2.9787    0.3044    0.8058 C   0  0  0  0  0  0  0  0  0  0  0  0
    4.2716   -0.0008    0.1115 C   0  0  0  0  0  0  0  0  0  0  0  0
    5.0117   -1.1584    0.2233 C   0  0  0  0  0  0  0  0  0  0  0  0
    6.0755   -0.9973   -0.6394 C   0  0  0  0  0  0  0  0  0  0  0  0
    5.9824    0.1639   -1.2520 O   0  0  0  0  0  0  0  0  0  0  0  0
    4.9047    0.7856   -0.8287 C   0  0  0  0  0  0  0  0  0  0  0  0
    0.4688    3.1198    2.3580 H   0  0  0  0  0  0  0  0  0  0  0  0
    1.3720    1.6016    2.6759 H   0  0  0  0  0  0  0  0  0  0  0  0
   -0.4136    1.6654    2.9412 H   0  0  0  0  0  0  0  0  0  0  0  0
    0.9247    2.1406    0.2181 H   0  0  0  0  0  0  0  0  0  0  0  0
   -1.1289    2.4148   -0.7547 H   0  0  0  0  0  0  0  0  0  0  0  0
   -1.3908    3.1467    0.8378 H   0  0  0  0  0  0  0  0  0  0  0  0
   -3.2795    1.7727    0.3592 H   0  0  0  0  0  0  0  0  0  0  0  0
   -2.3831    1.0060    1.6583 H   0  0  0  0  0  0  0  0  0  0  0  0
   -2.4389   -1.4534    1.5212 H   0  0  0  0  0  0  0  0  0  0  0  0
   -2.9510   -2.1923   -0.0144 H   0  0  0  0  0  0  0  0  0  0  0  0
   -3.9674   -0.9583    0.7743 H   0  0  0  0  0  0  0  0  0  0  0  0
   -5.9717    1.4072   -0.9919 H   0  0  0  0  0  0  0  0  0  0  0  0
   -3.1340   -0.9349   -3.5071 H   0  0  0  0  0  0  0  0  0  0  0  0
   -2.0224   -2.9621   -2.3003 H   0  0  0  0  0  0  0  0  0  0  0  0
   -0.9316   -2.0293   -3.3697 H   0  0  0  0  0  0  0  0  0  0  0  0
   -0.6923   -2.5823   -0.4780 H   0  0  0  0  0  0  0  0  0  0  0  0
    0.4834   -1.9145   -1.6295 H   0  0  0  0  0  0  0  0  0  0  0  0
   -0.4361    0.3015   -1.4244 H   0  0  0  0  0  0  0  0  0  0  0  0
    0.0779   -1.9165    1.5597 H   0  0  0  0  0  0  0  0  0  0  0  0
   -0.7322   -0.5274    2.3841 H   0  0  0  0  0  0  0  0  0  0  0  0
    1.0086   -0.7443    2.5091 H   0  0  0  0  0  0  0  0  0  0  0  0
    1.8760    0.1892   -1.0438 H   0  0  0  0  0  0  0  0  0  0  0  0
    1.9594   -1.3360   -0.1088 H   0  0  0  0  0  0  0  0  0  0  0  0
    2.9113    1.4029    0.9224 H   0  0  0  0  0  0  0  0  0  0  0  0
    3.0086   -0.1584    1.8147 H   0  0  0  0  0  0  0  0  0  0  0  0
    4.7980   -2.0152    0.8491 H   0  0  0  0  0  0  0  0  0  0  0  0
    6.8769   -1.7093   -0.7965 H   0  0  0  0  0  0  0  0  0  0  0  0
    4.5734    1.7554   -1.1795 H   0  0  0  0  0  0  0  0  0  0  0  0
  1  2  1  0
  2  3  1  0
  3  4  1  0
  4  5  1  0
  5  6  1  1
  5  7  1  0
  7  8  1  0
  8  9  2  0
  8 10  1  0
  7 11  2  0
 11 12  1  0
 12 13  1  0
 13 14  1  0
 14 15  1  0
 15 16  1  1
 15 17  1  0
 17 18  1  0
 18 19  1  0
 19 20  1  0
 20 21  2  0
 21 22  1  0
 22 23  1  0
 15  2  1  0
 23 19  2  0
 14  5  1  0
  1 24  1  0
  1 25  1  0
  1 26  1  0
  2 27  1  6
  3 28  1  0
  3 29  1  0
  4 30  1  0
  4 31  1  0
  6 32  1  0
  6 33  1  0
  6 34  1  0
 10 35  1  0
 11 36  1  0
 12 37  1  0
 12 38  1  0
 13 39  1  0
 13 40  1  0
 14 41  1  6
 16 42  1  0
 16 43  1  0
 16 44  1  0
 17 45  1  0
 17 46  1  0
 18 47  1  0
 18 48  1  0
 20 49  1  0
 21 50  1  0
 23 51  1  0
M  END

     RDKit          3D

 60 64  0  0  0  0  0  0  0  0999 V2000
   -2.1793    3.8878   -0.9134 C   0  0  0  0  0  0  0  0  0  0  0  0
   -2.4459    2.3919   -0.7294 C   0  0  0  0  0  0  0  0  0  0  0  0
   -2.2876    1.9672    0.7083 C   0  0  0  0  0  0  0  0  0  0  0  0
   -2.6968    2.7103    1.6413 O   0  0  0  0  0  0  0  0  0  0  0  0
   -1.7111    0.6884    1.0255 N   0  0  0  0  0  0  0  0  0  0  0  0
   -2.0046   -0.5338    0.3567 C   0  0  0  0  0  0  0  0  0  0  0  0
   -0.9363   -1.3944    0.4081 C   0  0  0  0  0  0  0  0  0  0  0  0
   -0.9841   -2.6410   -0.2239 C   0  0  0  0  0  0  0  0  0  0  0  0
   -2.1620   -3.0260   -0.8723 C   0  0  0  0  0  0  0  0  0  0  0  0
   -3.2973   -2.1804   -0.8607 C   0  0  0  0  0  0  0  0  0  0  0  0
   -4.5057   -2.5481   -1.4715 O   0  0  0  0  0  0  0  0  0  0  0  0
   -4.7197   -3.7794   -2.1566 C   0  0  0  0  0  0  0  0  0  0  0  0
   -3.2317   -0.9346   -0.2091 C   0  0  0  0  0  0  0  0  0  0  0  0
   -4.3934   -0.1688   -0.1031 O   0  0  0  0  0  0  0  0  0  0  0  0
    0.2360   -0.7434    1.1042 C   0  0  2  0  0  0  0  0  0  0  0  0
    0.8722   -1.6673    2.1421 C   0  0  0  0  0  0  0  0  0  0  0  0
    2.0643   -2.3060    1.4581 C   0  0  0  0  0  0  0  0  0  0  0  0
    2.2724   -1.6383    0.1641 N   0  0  0  0  0  0  0  0  0  0  0  0
    3.6996   -1.4394   -0.1501 C   0  0  0  0  0  0  0  0  0  0  0  0
    4.3315   -0.2413    0.5853 C   0  0  0  0  0  0  0  0  0  0  0  0
    3.3052    0.7885    1.0819 C   0  0  0  0  0  0  0  0  0  0  0  0
    2.0889    0.9332    0.1294 C   0  0  2  0  0  0  0  0  0  0  0  0
    2.6197    1.4028   -1.2832 C   0  0  0  0  0  0  0  0  0  0  0  0
    1.5659    1.8991   -2.2891 C   0  0  0  0  0  0  0  0  0  0  0  0
    1.1448    2.0520    0.6554 C   0  0  0  0  0  0  0  0  0  0  0  0
    0.4287    1.7067    1.9486 C   0  0  0  0  0  0  0  0  0  0  0  0
   -0.4692    0.4772    1.7869 C   0  0  1  0  0  0  0  0  0  0  0  0
    1.3593   -0.4689    0.0473 C   0  0  2  0  0  0  0  0  0  0  0  0
   -2.1799    4.1349   -1.9967 H   0  0  0  0  0  0  0  0  0  0  0  0
   -1.1860    4.1604   -0.4927 H   0  0  0  0  0  0  0  0  0  0  0  0
   -2.9689    4.4859   -0.4139 H   0  0  0  0  0  0  0  0  0  0  0  0
   -3.4739    2.1577   -1.0799 H   0  0  0  0  0  0  0  0  0  0  0  0
   -1.7293    1.8207   -1.3613 H   0  0  0  0  0  0  0  0  0  0  0  0
   -0.1249   -3.2967   -0.2246 H   0  0  0  0  0  0  0  0  0  0  0  0
   -2.1919   -3.9917   -1.3586 H   0  0  0  0  0  0  0  0  0  0  0  0
   -5.7548   -3.8012   -2.5504 H   0  0  0  0  0  0  0  0  0  0  0  0
   -4.0127   -3.8666   -3.0091 H   0  0  0  0  0  0  0  0  0  0  0  0
   -4.5854   -4.6338   -1.4619 H   0  0  0  0  0  0  0  0  0  0  0  0
   -4.4681    0.6269    0.5169 H   0  0  0  0  0  0  0  0  0  0  0  0
    0.1635   -2.4321    2.5232 H   0  0  0  0  0  0  0  0  0  0  0  0
    1.2396   -1.0773    3.0099 H   0  0  0  0  0  0  0  0  0  0  0  0
    1.8659   -3.3834    1.2782 H   0  0  0  0  0  0  0  0  0  0  0  0
    2.9549   -2.2298    2.1209 H   0  0  0  0  0  0  0  0  0  0  0  0
    4.2718   -2.3607    0.0950 H   0  0  0  0  0  0  0  0  0  0  0  0
    3.8167   -1.3430   -1.2492 H   0  0  0  0  0  0  0  0  0  0  0  0
    5.0563    0.2548   -0.0970 H   0  0  0  0  0  0  0  0  0  0  0  0
    4.9146   -0.6107    1.4562 H   0  0  0  0  0  0  0  0  0  0  0  0
    2.9704    0.4606    2.0855 H   0  0  0  0  0  0  0  0  0  0  0  0
    3.8157    1.7676    1.2177 H   0  0  0  0  0  0  0  0  0  0  0  0
    3.1686    0.6000   -1.7928 H   0  0  0  0  0  0  0  0  0  0  0  0
    3.3513    2.2292   -1.1451 H   0  0  0  0  0  0  0  0  0  0  0  0
    1.2686    2.9438   -2.0553 H   0  0  0  0  0  0  0  0  0  0  0  0
    0.6689    1.2535   -2.3007 H   0  0  0  0  0  0  0  0  0  0  0  0
    2.0017    1.9040   -3.3092 H   0  0  0  0  0  0  0  0  0  0  0  0
    0.3550    2.2746   -0.0823 H   0  0  0  0  0  0  0  0  0  0  0  0
    1.7184    2.9937    0.8066 H   0  0  0  0  0  0  0  0  0  0  0  0
   -0.1732    2.5771    2.2809 H   0  0  0  0  0  0  0  0  0  0  0  0
    1.1616    1.5259    2.7612 H   0  0  0  0  0  0  0  0  0  0  0  0
   -0.7841    0.1870    2.8136 H   0  0  0  0  0  0  0  0  0  0  0  0
    0.9055   -0.5253   -0.9657 H   0  0  0  0  0  0  0  0  0  0  0  0
  1  2  1  0
  2  3  1  0
  3  4  2  0
  3  5  1  0
  5  6  1  0
  6  7  2  0
  7  8  1  0
  8  9  2  0
  9 10  1  0
 10 11  1  0
 11 12  1  0
 10 13  2  0
 13 14  1  0
  7 15  1  0
 15 16  1  1
 16 17  1  0
 17 18  1  0
 18 19  1  0
 19 20  1  0
 20 21  1  0
 21 22  1  0
 22 23  1  6
 23 24  1  0
 22 25  1  0
 25 26  1  0
 26 27  1  0
 22 28  1  0
 27  5  1  0
 13  6  1  0
 27 15  1  0
 28 15  1  0
 28 18  1  0
  1 29  1  0
  1 30  1  0
  1 31  1  0
  2 32  1  0
  2 33  1  0
  8 34  1  0
  9 35  1  0
 12 36  1  0
 12 37  1  0
 12 38  1  0
 14 39  1  0
 16 40  1  0
 16 41  1  0
 17 42  1  0
 17 43  1  0
 19 44  1  0
 19 45  1  0
 20 46  1  0
 20 47  1  0
 21 48  1  0
 21 49  1  0
 23 50  1  0
 23 51  1  0
 24 52  1  0
 24 53  1  0
 24 54  1  0
 25 55  1  0
 25 56  1  0
 26 57  1  0
 26 58  1  0
 27 59  1  1
 28 60  1  6
M  END

     RDKit          3D

 43 45  0  0  0  0  0  0  0  0999 V2000
   -6.3856    2.1644   -1.7439 C   0  0  0  0  0  0  0  0  0  0  0  0
   -4.9747    2.2463   -1.5705 O   0  0  0  0  0  0  0  0  0  0  0  0
   -4.1974    1.2755   -0.9216 C   0  0  0  0  0  0  0  0  0  0  0  0
   -4.7492    0.0927   -0.3987 C   0  0  0  0  0  0  0  0  0  0  0  0
   -3.9421   -0.8591    0.2363 C   0  0  0  0  0  0  0  0  0  0  0  0
   -4.5516   -2.0486    0.6410 O   0  0  0  0  0  0  0  0  0  0  0  0
   -2.5577   -0.5998    0.4091 C   0  0  0  0  0  0  0  0  0  0  0  0
   -2.0103    0.5816   -0.1326 C   0  0  0  0  0  0  0  0  0  0  0  0
   -2.8247    1.4990   -0.7999 C   0  0  0  0  0  0  0  0  0  0  0  0
   -0.6410    0.8510   -0.0134 O   0  0  0  0  0  0  0  0  0  0  0  0
    0.2046    0.1451    0.8982 C   0  0  2  0  0  0  0  0  0  0  0  0
    1.6512    0.3591    0.5195 C   0  0  0  0  0  0  0  0  0  0  0  0
    2.0780    0.1644   -0.8038 C   0  0  0  0  0  0  0  0  0  0  0  0
    3.4221    0.3324   -1.1463 C   0  0  0  0  0  0  0  0  0  0  0  0
    4.3666    0.6960   -0.1676 C   0  0  0  0  0  0  0  0  0  0  0  0
    5.7258    0.8755   -0.4686 O   0  0  0  0  0  0  0  0  0  0  0  0
    6.2927    0.7093   -1.7641 C   0  0  0  0  0  0  0  0  0  0  0  0
    3.9439    0.8845    1.1557 C   0  0  0  0  0  0  0  0  0  0  0  0
    4.8740    1.2445    2.1299 O   0  0  0  0  0  0  0  0  0  0  0  0
    2.5953    0.7102    1.4975 C   0  0  0  0  0  0  0  0  0  0  0  0
   -0.1470   -1.3549    0.9141 C   0  0  1  0  0  0  0  0  0  0  0  0
    0.5648   -1.9859    1.9689 O   0  0  0  0  0  0  0  0  0  0  0  0
    1.3467   -3.0513    1.4772 C   0  0  0  0  0  0  0  0  0  0  0  0
   -1.6294   -1.4966    1.1427 C   0  0  0  0  0  0  0  0  0  0  0  0
   -2.0542   -2.3372    1.9800 O   0  0  0  0  0  0  0  0  0  0  0  0
   -6.6449    1.2747   -2.3558 H   0  0  0  0  0  0  0  0  0  0  0  0
   -6.8894    2.1096   -0.7555 H   0  0  0  0  0  0  0  0  0  0  0  0
   -6.7390    3.0737   -2.2718 H   0  0  0  0  0  0  0  0  0  0  0  0
   -5.8056   -0.1146   -0.5036 H   0  0  0  0  0  0  0  0  0  0  0  0
   -4.0446   -2.8807    0.9022 H   0  0  0  0  0  0  0  0  0  0  0  0
   -2.3902    2.4029   -1.2096 H   0  0  0  0  0  0  0  0  0  0  0  0
    0.0189    0.5598    1.9158 H   0  0  0  0  0  0  0  0  0  0  0  0
    1.3697   -0.1245   -1.5707 H   0  0  0  0  0  0  0  0  0  0  0  0
    3.7173    0.1736   -2.1742 H   0  0  0  0  0  0  0  0  0  0  0  0
    7.3819    0.9138   -1.7114 H   0  0  0  0  0  0  0  0  0  0  0  0
    5.8293    1.4248   -2.4765 H   0  0  0  0  0  0  0  0  0  0  0  0
    6.1421   -0.3341   -2.1150 H   0  0  0  0  0  0  0  0  0  0  0  0
    4.6016    1.3905    3.0952 H   0  0  0  0  0  0  0  0  0  0  0  0
    2.2862    0.8476    2.5265 H   0  0  0  0  0  0  0  0  0  0  0  0
    0.0652   -1.7790   -0.0991 H   0  0  0  0  0  0  0  0  0  0  0  0
    1.8767   -3.5251    2.3277 H   0  0  0  0  0  0  0  0  0  0  0  0
    2.1157   -2.6837    0.7622 H   0  0  0  0  0  0  0  0  0  0  0  0
    0.7082   -3.8275    1.0001 H   0  0  0  0  0  0  0  0  0  0  0  0
  1  2  1  0
  2  3  1  0
  3  4  2  0
  4  5  1  0
  5  6  1  0
  5  7  2  0
  7  8  1  0
  8  9  2  0
  8 10  1  0
 10 11  1  0
 11 12  1  0
 12 13  2  0
 13 14  1  0
 14 15  2  0
 15 16  1  0
 16 17  1  0
 15 18  1  0
 18 19  1  0
 18 20  2  0
 11 21  1  0
 21 22  1  0
 22 23  1  0
 21 24  1  0
 24 25  2  0
  9  3  1  0
 20 12  1  0
 24  7  1  0
  1 26  1  0
  1 27  1  0
  1 28  1  0
  4 29  1  0
  6 30  1  0
  9 31  1  0
 11 32  1  1
 13 33  1  0
 14 34  1  0
 17 35  1  0
 17 36  1  0
 17 37  1  0
 19 38  1  0
 20 39  1  0
 21 40  1  6
 23 41  1  0
 23 42  1  0
 23 43  1  0
M  END

     RDKit          3D

 45 47  0  0  0  0  0  0  0  0999 V2000
    5.1076    3.2304   -1.5083 O   0  0  0  0  0  0  0  0  0  0  0  0
    5.4144    2.1753   -0.8858 C   0  0  0  0  0  0  0  0  0  0  0  0
    6.7584    1.8836   -0.6549 O   0  0  0  0  0  0  0  0  0  0  0  0
    4.3627    1.2565   -0.3971 C   0  0  0  0  0  0  0  0  0  0  0  0
    3.0687    1.4890   -0.6675 C   0  0  0  0  0  0  0  0  0  0  0  0
    2.0080    0.5533   -0.2243 C   0  0  0  0  0  0  0  0  0  0  0  0
    0.7341    0.8178   -0.5791 C   0  0  0  0  0  0  0  0  0  0  0  0
   -0.4201   -0.0704   -0.2895 C   0  0  0  0  0  0  0  0  0  0  0  0
   -1.6587    0.2675   -0.5497 N   0  0  0  0  0  4  0  0  0  0  0  0
   -2.7991   -0.5539   -0.3092 C   0  0  0  0  0  0  0  0  0  0  0  0
   -2.8543   -1.7680    0.3941 C   0  0  0  0  0  0  0  0  0  0  0  0
   -4.0946   -2.4115    0.5499 C   0  0  0  0  0  0  0  0  0  0  0  0
   -4.1166   -3.6176    1.2530 O   0  0  0  0  0  0  0  0  0  0  0  0
   -5.2689   -1.8286   -0.0085 C   0  0  0  0  0  0  0  0  0  0  0  0
   -6.5289   -2.4204    0.1035 O   0  0  0  0  0  0  0  0  0  0  0  0
   -5.1747   -0.6135   -0.7038 C   0  0  0  0  0  0  0  0  0  0  0  0
   -3.9325    0.0077   -0.8277 C   0  0  0  0  0  0  0  0  0  0  0  0
   -3.6276    1.3012   -1.4975 C   0  0  0  0  0  0  0  0  0  0  0  0
   -2.1126    1.4993   -1.2243 C   0  0  1  0  0  0  0  0  0  0  0  0
   -1.8881    2.7070   -0.3559 C   0  0  0  0  0  0  0  0  0  0  0  0
   -1.5135    3.7942   -0.8782 O   0  0  0  0  0  0  0  0  0  0  0  0
   -2.1209    2.6393    1.0172 O   0  0  0  0  0  0  0  0  0  0  0  0
    2.4077   -0.7311    0.4767 C   0  0  0  0  0  0  0  0  0  0  0  0
    3.7491   -0.5926    1.2126 C   0  0  1  0  0  0  0  0  0  0  0  0
    4.2449   -1.9549    1.6248 C   0  0  0  0  0  0  0  0  0  0  0  0
    5.1258   -2.5531    0.9429 O   0  0  0  0  0  0  0  0  0  0  0  0
    3.6708   -2.5893    2.7275 O   0  0  0  0  0  0  0  0  0  0  0  0
    4.7321    0.1058    0.3791 N   0  0  0  0  0  0  0  0  0  0  0  0
    7.4884    2.5106   -0.9730 H   0  0  0  0  0  0  0  0  0  0  0  0
    2.7844    2.3680   -1.2382 H   0  0  0  0  0  0  0  0  0  0  0  0
    0.5426    1.7356   -1.1137 H   0  0  0  0  0  0  0  0  0  0  0  0
   -0.2251   -1.0433    0.1290 H   0  0  0  0  0  0  0  0  0  0  0  0
   -1.9712   -2.2111    0.8328 H   0  0  0  0  0  0  0  0  0  0  0  0
   -4.9493   -4.1618    1.4080 H   0  0  0  0  0  0  0  0  0  0  0  0
   -6.7022   -3.2872    0.5903 H   0  0  0  0  0  0  0  0  0  0  0  0
   -6.0621   -0.1514   -1.1214 H   0  0  0  0  0  0  0  0  0  0  0  0
   -3.8186    1.2075   -2.5899 H   0  0  0  0  0  0  0  0  0  0  0  0
   -4.2573    2.1128   -1.0704 H   0  0  0  0  0  0  0  0  0  0  0  0
   -1.5751    1.6157   -2.1911 H   0  0  0  0  0  0  0  0  0  0  0  0
   -1.9479    3.4425    1.6044 H   0  0  0  0  0  0  0  0  0  0  0  0
    1.6495   -1.0151    1.2361 H   0  0  0  0  0  0  0  0  0  0  0  0
    2.4719   -1.5372   -0.2853 H   0  0  0  0  0  0  0  0  0  0  0  0
    3.5848    0.0102    2.1316 H   0  0  0  0  0  0  0  0  0  0  0  0
    3.9660   -3.5193    3.0034 H   0  0  0  0  0  0  0  0  0  0  0  0
    5.7484   -0.0997    0.5270 H   0  0  0  0  0  0  0  0  0  0  0  0
  1  2  2  0
  2  3  1  0
  2  4  1  0
  4  5  2  0
  5  6  1  0
  6  7  2  0
  7  8  1  0
  8  9  2  0
  9 10  1  0
 10 11  2  0
 11 12  1  0
 12 13  1  0
 12 14  2  0
 14 15  1  0
 14 16  1  0
 16 17  2  0
 17 18  1  0
 18 19  1  0
 19 20  1  0
 20 21  2  0
 20 22  1  0
  6 23  1  0
 23 24  1  0
 24 25  1  0
 25 26  2  0
 25 27  1  0
 24 28  1  0
 28  4  1  0
 19  9  1  0
 17 10  1  0
  3 29  1  0
  5 30  1  0
  7 31  1  0
  8 32  1  0
 11 33  1  0
 13 34  1  0
 15 35  1  0
 16 36  1  0
 18 37  1  0
 18 38  1  0
 19 39  1  6
 22 40  1  0
 23 41  1  0
 23 42  1  0
 24 43  1  1
 27 44  1  0
 28 45  1  0
M  CHG  1   9   1
M  END

     RDKit          3D

 75 78  0  0  0  0  0  0  0  0999 V2000
   -6.5210    2.4050   -0.1173 C   0  0  0  0  0  0  0  0  0  0  0  0
   -6.3732    0.8866    0.0865 C   0  0  0  0  0  0  0  0  0  0  0  0
   -7.5166    0.1387   -0.6205 C   0  0  0  0  0  0  0  0  0  0  0  0
   -4.9505    0.3814   -0.3153 C   0  0  2  0  0  0  0  0  0  0  0  0
   -4.7345    0.3321   -1.8387 C   0  0  0  0  0  0  0  0  0  0  0  0
   -4.6350   -0.9960    0.3426 C   0  0  0  0  0  0  0  0  0  0  0  0
   -3.1508   -1.4526    0.2848 C   0  0  0  0  0  0  0  0  0  0  0  0
   -2.1042   -0.4156    0.7992 C   0  0  1  0  0  0  0  0  0  0  0  0
   -2.4527    0.0207    2.2353 C   0  0  0  0  0  0  0  0  0  0  0  0
   -0.6021   -0.8831    0.7414 C   0  0  1  0  0  0  0  0  0  0  0  0
   -0.2930   -2.2779    1.2535 C   0  0  0  0  0  0  0  0  0  0  0  0
    1.1814   -2.4470    0.9386 C   0  0  0  0  0  0  0  0  0  0  0  0
    1.4015   -1.7328   -0.4091 C   0  0  2  0  0  0  0  0  0  0  0  0
    2.7935   -1.0500   -0.5854 C   0  0  2  0  0  0  0  0  0  0  0  0
    3.9481   -2.0295   -0.3019 C   0  0  0  0  0  0  0  0  0  0  0  0
    5.2953   -1.3895   -0.6309 C   0  0  0  0  0  0  0  0  0  0  0  0
    5.4658   -0.0941    0.1261 C   0  0  0  0  0  0  0  0  0  0  0  0
    6.6751    0.2027    0.6369 C   0  0  0  0  0  0  0  0  0  0  0  0
    6.9772    1.5223    1.2162 C   0  0  0  0  0  0  0  0  0  0  0  0
    8.1357    1.7602    1.6564 O   0  0  0  0  0  0  0  0  0  0  0  0
    5.9458    2.6076    1.2251 C   0  0  0  0  0  0  0  0  0  0  0  0
    4.5338    2.0088    1.1916 C   0  0  0  0  0  0  0  0  0  0  0  0
    4.3450    0.9559    0.0550 C   0  0  1  0  0  0  0  0  0  0  0  0
    4.4537    1.6547   -1.3300 C   0  0  0  0  0  0  0  0  0  0  0  0
    2.9479    0.2470    0.2632 C   0  0  1  0  0  0  0  0  0  0  0  0
    1.7334    1.2166    0.1051 C   0  0  0  0  0  0  0  0  0  0  0  0
    0.6459    0.7148   -0.8566 C   0  0  0  0  0  0  0  0  0  0  0  0
    0.1939   -0.7511   -0.5989 C   0  0  2  0  0  0  0  0  0  0  0  0
   -0.6209   -1.2132   -1.8293 C   0  0  0  0  0  0  0  0  0  0  0  0
   -6.4576    2.6744   -1.1934 H   0  0  0  0  0  0  0  0  0  0  0  0
   -5.7251    2.9463    0.4373 H   0  0  0  0  0  0  0  0  0  0  0  0
   -7.5049    2.7455    0.2712 H   0  0  0  0  0  0  0  0  0  0  0  0
   -6.5005    0.7145    1.1806 H   0  0  0  0  0  0  0  0  0  0  0  0
   -7.5325    0.3731   -1.7074 H   0  0  0  0  0  0  0  0  0  0  0  0
   -8.4925    0.4492   -0.1852 H   0  0  0  0  0  0  0  0  0  0  0  0
   -7.4161   -0.9580   -0.4857 H   0  0  0  0  0  0  0  0  0  0  0  0
   -4.2398    1.1271    0.0948 H   0  0  0  0  0  0  0  0  0  0  0  0
   -5.3633   -0.4605   -2.3090 H   0  0  0  0  0  0  0  0  0  0  0  0
   -3.6752    0.1160   -2.0732 H   0  0  0  0  0  0  0  0  0  0  0  0
   -4.9771    1.3130   -2.3020 H   0  0  0  0  0  0  0  0  0  0  0  0
   -4.9547   -0.9930    1.4084 H   0  0  0  0  0  0  0  0  0  0  0  0
   -5.2447   -1.7845   -0.1521 H   0  0  0  0  0  0  0  0  0  0  0  0
   -3.0745   -2.3805    0.8899 H   0  0  0  0  0  0  0  0  0  0  0  0
   -2.9439   -1.7476   -0.7576 H   0  0  0  0  0  0  0  0  0  0  0  0
   -2.1637    0.4869    0.1595 H   0  0  0  0  0  0  0  0  0  0  0  0
   -2.4582   -0.8545    2.9191 H   0  0  0  0  0  0  0  0  0  0  0  0
   -3.4429    0.5139    2.2824 H   0  0  0  0  0  0  0  0  0  0  0  0
   -1.7220    0.7652    2.6166 H   0  0  0  0  0  0  0  0  0  0  0  0
   -0.0759   -0.2253    1.4616 H   0  0  0  0  0  0  0  0  0  0  0  0
   -0.4877   -2.3740    2.3443 H   0  0  0  0  0  0  0  0  0  0  0  0
   -0.8753   -3.0477    0.6986 H   0  0  0  0  0  0  0  0  0  0  0  0
    1.7732   -1.9750    1.7533 H   0  0  0  0  0  0  0  0  0  0  0  0
    1.4561   -3.5245    0.8806 H   0  0  0  0  0  0  0  0  0  0  0  0
    1.3644   -2.5341   -1.1837 H   0  0  0  0  0  0  0  0  0  0  0  0
    2.8583   -0.7742   -1.6583 H   0  0  0  0  0  0  0  0  0  0  0  0
    3.8262   -2.9398   -0.9286 H   0  0  0  0  0  0  0  0  0  0  0  0
    3.9503   -2.3402    0.7631 H   0  0  0  0  0  0  0  0  0  0  0  0
    6.0971   -2.1173   -0.3877 H   0  0  0  0  0  0  0  0  0  0  0  0
    5.3461   -1.1722   -1.7165 H   0  0  0  0  0  0  0  0  0  0  0  0
    7.4745   -0.5285    0.5976 H   0  0  0  0  0  0  0  0  0  0  0  0
    6.0598    3.2246    2.1419 H   0  0  0  0  0  0  0  0  0  0  0  0
    6.1026    3.2689    0.3493 H   0  0  0  0  0  0  0  0  0  0  0  0
    3.8070    2.8448    1.0924 H   0  0  0  0  0  0  0  0  0  0  0  0
    4.3455    1.5370    2.1811 H   0  0  0  0  0  0  0  0  0  0  0  0
    4.1248    0.9942   -2.1534 H   0  0  0  0  0  0  0  0  0  0  0  0
    5.5053    1.9382   -1.5418 H   0  0  0  0  0  0  0  0  0  0  0  0
    3.8647    2.5955   -1.3770 H   0  0  0  0  0  0  0  0  0  0  0  0
    2.9292   -0.0908    1.3216 H   0  0  0  0  0  0  0  0  0  0  0  0
    1.2959    1.4256    1.1044 H   0  0  0  0  0  0  0  0  0  0  0  0
    2.0376    2.2169   -0.2570 H   0  0  0  0  0  0  0  0  0  0  0  0
   -0.2217    1.4026   -0.7962 H   0  0  0  0  0  0  0  0  0  0  0  0
    1.0473    0.8084   -1.8910 H   0  0  0  0  0  0  0  0  0  0  0  0
   -0.9888   -2.2508   -1.6996 H   0  0  0  0  0  0  0  0  0  0  0  0
   -1.4638   -0.5259   -2.0258 H   0  0  0  0  0  0  0  0  0  0  0  0
    0.0179   -1.2057   -2.7388 H   0  0  0  0  0  0  0  0  0  0  0  0
  1  2  1  0
  2  3  1  0
  2  4  1  0
  4  5  1  0
  4  6  1  0
  6  7  1  0
  7  8  1  0
  8  9  1  0
  8 10  1  0
 10 11  1  0
 11 12  1  0
 12 13  1  0
 13 14  1  0
 14 15  1  0
 15 16  1  0
 16 17  1  0
 17 18  2  0
 18 19  1  0
 19 20  2  0
 19 21  1  0
 21 22  1  0
 22 23  1  0
 23 24  1  6
 23 25  1  0
 25 26  1  0
 26 27  1  0
 27 28  1  0
 28 29  1  6
 28 10  1  0
 28 13  1  0
 25 14  1  0
 23 17  1  0
  1 30  1  0
  1 31  1  0
  1 32  1  0
  2 33  1  0
  3 34  1  0
  3 35  1  0
  3 36  1  0
  4 37  1  1
  5 38  1  0
  5 39  1  0
  5 40  1  0
  6 41  1  0
  6 42  1  0
  7 43  1  0
  7 44  1  0
  8 45  1  6
  9 46  1  0
  9 47  1  0
  9 48  1  0
 10 49  1  1
 11 50  1  0
 11 51  1  0
 12 52  1  0
 12 53  1  0
 13 54  1  6
 14 55  1  6
 15 56  1  0
 15 57  1  0
 16 58  1  0
 16 59  1  0
 18 60  1  0
 21 61  1  0
 21 62  1  0
 22 63  1  0
 22 64  1  0
 24 65  1  0
 24 66  1  0
 24 67  1  0
 25 68  1  1
 26 69  1  0
 26 70  1  0
 27 71  1  0
 27 72  1  0
 29 73  1  0
 29 74  1  0
 29 75  1  0
M  END

     RDKit          3D

 59 58  0  0  0  0  0  0  0  0999 V2000
  -10.0243    1.2630    1.7017 C   0  0  0  0  0  0  0  0  0  0  0  0
   -8.6556    0.6280    1.9329 C   0  0  0  0  0  0  0  0  0  0  0  0
   -7.7591    0.7719    0.6973 C   0  0  0  0  0  0  0  0  0  0  0  0
   -6.3875    0.1300    0.9388 C   0  0  0  0  0  0  0  0  0  0  0  0
   -5.4779    0.2810   -0.2871 C   0  0  0  0  0  0  0  0  0  0  0  0
   -4.0984   -0.3374   -0.0293 C   0  0  0  0  0  0  0  0  0  0  0  0
   -3.1812   -0.1726   -1.2528 C   0  0  0  0  0  0  0  0  0  0  0  0
   -1.7896   -0.7865   -1.0263 C   0  0  0  0  0  0  0  0  0  0  0  0
   -0.8769    0.1280   -0.1897 C   0  0  0  0  0  0  0  0  0  0  0  0
    0.4305   -0.5627    0.2268 C   0  0  0  0  0  0  0  0  0  0  0  0
    1.4283   -0.6982   -0.9352 C   0  0  0  0  0  0  0  0  0  0  0  0
    2.6873   -1.4942   -0.5475 C   0  0  0  0  0  0  0  0  0  0  0  0
    3.5133   -0.8892    0.6042 C   0  0  0  0  0  0  0  0  0  0  0  0
    3.9967    0.5556    0.3725 C   0  0  0  0  0  0  0  0  0  0  0  0
    4.9075    0.7478   -0.8562 C   0  0  0  0  0  0  0  0  0  0  0  0
    6.2386   -0.0244   -0.8032 C   0  0  0  0  0  0  0  0  0  0  0  0
    7.1717    0.4821    0.3105 C   0  0  0  0  0  0  0  0  0  0  0  0
    8.5412   -0.2113    0.2864 C   0  0  0  0  0  0  0  0  0  0  0  0
    9.3400    0.1143   -0.9419 C   0  0  0  0  0  0  0  0  0  0  0  0
   10.0422   -0.7793   -1.4870 O   0  0  0  0  0  0  0  0  0  0  0  0
    9.3589    1.4119   -1.4466 O   0  0  0  0  0  0  0  0  0  0  0  0
  -10.6484    1.1370    2.6110 H   0  0  0  0  0  0  0  0  0  0  0  0
   -9.9168    2.3478    1.4922 H   0  0  0  0  0  0  0  0  0  0  0  0
  -10.5401    0.7720    0.8486 H   0  0  0  0  0  0  0  0  0  0  0  0
   -8.7957   -0.4508    2.1679 H   0  0  0  0  0  0  0  0  0  0  0  0
   -8.1742    1.1196    2.8069 H   0  0  0  0  0  0  0  0  0  0  0  0
   -7.6246    1.8508    0.4636 H   0  0  0  0  0  0  0  0  0  0  0  0
   -8.2462    0.2817   -0.1731 H   0  0  0  0  0  0  0  0  0  0  0  0
   -6.5214   -0.9507    1.1626 H   0  0  0  0  0  0  0  0  0  0  0  0
   -5.9047    0.6158    1.8160 H   0  0  0  0  0  0  0  0  0  0  0  0
   -5.9511   -0.2188   -1.1603 H   0  0  0  0  0  0  0  0  0  0  0  0
   -5.3543    1.3601   -0.5226 H   0  0  0  0  0  0  0  0  0  0  0  0
   -3.6451    0.1558    0.8558 H   0  0  0  0  0  0  0  0  0  0  0  0
   -4.2205   -1.4202    0.1947 H   0  0  0  0  0  0  0  0  0  0  0  0
   -3.6514   -0.6876   -2.1206 H   0  0  0  0  0  0  0  0  0  0  0  0
   -3.0804    0.9040   -1.5149 H   0  0  0  0  0  0  0  0  0  0  0  0
   -1.3193   -0.9449   -2.0188 H   0  0  0  0  0  0  0  0  0  0  0  0
   -1.8929   -1.7813   -0.5423 H   0  0  0  0  0  0  0  0  0  0  0  0
   -1.4028    0.4297    0.7406 H   0  0  0  0  0  0  0  0  0  0  0  0
   -0.6502    1.0560   -0.7591 H   0  0  0  0  0  0  0  0  0  0  0  0
    0.2079   -1.5608    0.6586 H   0  0  0  0  0  0  0  0  0  0  0  0
    0.8908    0.0538    1.0256 H   0  0  0  0  0  0  0  0  0  0  0  0
    1.7076    0.3069   -1.3143 H   0  0  0  0  0  0  0  0  0  0  0  0
    0.9435   -1.2362   -1.7767 H   0  0  0  0  0  0  0  0  0  0  0  0
    2.3784   -2.5197   -0.2498 H   0  0  0  0  0  0  0  0  0  0  0  0
    3.3312   -1.6095   -1.4459 H   0  0  0  0  0  0  0  0  0  0  0  0
    4.3865   -1.5470    0.7976 H   0  0  0  0  0  0  0  0  0  0  0  0
    2.9126   -0.9143    1.5368 H   0  0  0  0  0  0  0  0  0  0  0  0
    4.5255    0.9021    1.2844 H   0  0  0  0  0  0  0  0  0  0  0  0
    3.1188    1.2253    0.2705 H   0  0  0  0  0  0  0  0  0  0  0  0
    4.3561    0.4573   -1.7745 H   0  0  0  0  0  0  0  0  0  0  0  0
    5.1311    1.8312   -0.9583 H   0  0  0  0  0  0  0  0  0  0  0  0
    6.0532   -1.1127   -0.6865 H   0  0  0  0  0  0  0  0  0  0  0  0
    6.7393    0.1122   -1.7857 H   0  0  0  0  0  0  0  0  0  0  0  0
    6.7097    0.2707    1.2977 H   0  0  0  0  0  0  0  0  0  0  0  0
    7.3064    1.5829    0.2255 H   0  0  0  0  0  0  0  0  0  0  0  0
    9.1219    0.1192    1.1745 H   0  0  0  0  0  0  0  0  0  0  0  0
    8.3994   -1.3114    0.3646 H   0  0  0  0  0  0  0  0  0  0  0  0
    9.9147    1.6469   -2.2606 H   0  0  0  0  0  0  0  0  0  0  0  0
  1  2  1  0
  2  3  1  0
  3  4  1  0
  4  5  1  0
  5  6  1  0
  6  7  1  0
  7  8  1  0
  8  9  1  0
  9 10  1  0
 10 11  1  0
 11 12  1  0
 12 13  1  0
 13 14  1  0
 14 15  1  0
 15 16  1  0
 16 17  1  0
 17 18  1  0
 18 19  1  0
 19 20  2  0
 19 21  1  0
  1 22  1  0
  1 23  1  0
  1 24  1  0
  2 25  1  0
  2 26  1  0
  3 27  1  0
  3 28  1  0
  4 29  1  0
  4 30  1  0
  5 31  1  0
  5 32  1  0
  6 33  1  0
  6 34  1  0
  7 35  1  0
  7 36  1  0
  8 37  1  0
  8 38  1  0
  9 39  1  0
  9 40  1  0
 10 41  1  0
 10 42  1  0
 11 43  1  0
 11 44  1  0
 12 45  1  0
 12 46  1  0
 13 47  1  0
 13 48  1  0
 14 49  1  0
 14 50  1  0
 15 51  1  0
 15 52  1  0
 16 53  1  0
 16 54  1  0
 17 55  1  0
 17 56  1  0
 18 57  1  0
 18 58  1  0
 21 59  1  0
M  END

     RDKit          3D

 51 54  0  0  0  0  0  0  0  0999 V2000
   -0.2809   -2.7211   -0.6557 C   0  0  0  0  0  0  0  0  0  0  0  0
    0.3771   -1.3372   -0.8378 C   0  0  2  0  0  0  0  0  0  0  0  0
    1.8624   -1.5611   -1.0664 C   0  0  0  0  0  0  0  0  0  0  0  0
    2.2441   -1.9836   -2.1483 O   0  0  0  0  0  0  0  0  0  0  0  0
    2.8668   -1.3430    0.0401 C   0  0  0  0  0  0  0  0  0  0  0  0
    2.6819    0.0185    0.7911 C   0  0  1  0  0  0  0  0  0  0  0  0
    2.8596   -0.1732    2.3516 C   0  0  0  0  0  0  0  0  0  0  0  0
    4.1570    0.3164    2.6893 O   0  0  0  0  0  0  0  0  0  0  0  0
    4.7083    1.0046    1.6386 C   0  0  0  0  0  0  0  0  0  0  0  0
    5.8077    1.6168    1.7003 O   0  0  0  0  0  0  0  0  0  0  0  0
    3.8456    0.9349    0.4911 C   0  0  0  0  0  0  0  0  0  0  0  0
    3.9346    1.6979   -0.5907 C   0  0  0  0  0  0  0  0  0  0  0  0
    2.8498    1.6111   -1.6030 C   0  0  0  0  0  0  0  0  0  0  0  0
    1.4609    1.5906   -0.9368 C   0  0  0  0  0  0  0  0  0  0  0  0
    1.3222    0.7251    0.3869 C   0  0  1  0  0  0  0  0  0  0  0  0
    0.0932   -0.2882    0.3172 C   0  0  2  0  0  0  0  0  0  0  0  0
   -0.0803   -0.9965    1.6970 C   0  0  0  0  0  0  0  0  0  0  0  0
   -1.2239    0.5552    0.0669 C   0  0  0  0  0  0  0  0  0  0  0  0
   -2.5161   -0.2392   -0.2236 C   0  0  0  0  0  0  0  0  0  0  0  0
   -3.7514    0.6793   -0.3749 C   0  0  2  0  0  0  0  0  0  0  0  0
   -4.1444    1.4053    0.9411 C   0  0  0  0  0  0  0  0  0  0  0  0
   -5.5124    1.1101    1.1559 O   0  0  0  0  0  0  0  0  0  0  0  0
   -5.9997    0.2502    0.2009 C   0  0  0  0  0  0  0  0  0  0  0  0
   -7.1795   -0.1805    0.2122 O   0  0  0  0  0  0  0  0  0  0  0  0
   -4.9960   -0.1245   -0.8092 C   0  0  0  0  0  0  0  0  0  0  0  0
   -1.3570   -2.6547   -0.4175 H   0  0  0  0  0  0  0  0  0  0  0  0
    0.2221   -3.2960    0.1497 H   0  0  0  0  0  0  0  0  0  0  0  0
   -0.1949   -3.3026   -1.5947 H   0  0  0  0  0  0  0  0  0  0  0  0
   -0.0250   -0.9122   -1.7854 H   0  0  0  0  0  0  0  0  0  0  0  0
    2.7618   -2.2056    0.7293 H   0  0  0  0  0  0  0  0  0  0  0  0
    3.8979   -1.4281   -0.3713 H   0  0  0  0  0  0  0  0  0  0  0  0
    2.7875   -1.2281    2.6883 H   0  0  0  0  0  0  0  0  0  0  0  0
    2.1091    0.4209    2.9187 H   0  0  0  0  0  0  0  0  0  0  0  0
    4.7415    2.4128   -0.7114 H   0  0  0  0  0  0  0  0  0  0  0  0
    3.0004    0.6839   -2.1939 H   0  0  0  0  0  0  0  0  0  0  0  0
    2.9167    2.4713   -2.3031 H   0  0  0  0  0  0  0  0  0  0  0  0
    1.1680    2.6405   -0.7071 H   0  0  0  0  0  0  0  0  0  0  0  0
    0.7778    1.2417   -1.7356 H   0  0  0  0  0  0  0  0  0  0  0  0
    1.0961    1.4621    1.1855 H   0  0  0  0  0  0  0  0  0  0  0  0
   -1.0080   -1.5992    1.7435 H   0  0  0  0  0  0  0  0  0  0  0  0
   -0.1356   -0.2443    2.5154 H   0  0  0  0  0  0  0  0  0  0  0  0
    0.7405   -1.7085    1.9056 H   0  0  0  0  0  0  0  0  0  0  0  0
   -1.3915    1.1929    0.9625 H   0  0  0  0  0  0  0  0  0  0  0  0
   -1.1064    1.2711   -0.7738 H   0  0  0  0  0  0  0  0  0  0  0  0
   -2.7246   -0.9793    0.5741 H   0  0  0  0  0  0  0  0  0  0  0  0
   -2.3858   -0.7794   -1.1858 H   0  0  0  0  0  0  0  0  0  0  0  0
   -3.5375    1.4460   -1.1554 H   0  0  0  0  0  0  0  0  0  0  0  0
   -4.0126    2.5077    0.8315 H   0  0  0  0  0  0  0  0  0  0  0  0
   -3.5609    1.0547    1.8235 H   0  0  0  0  0  0  0  0  0  0  0  0
   -4.8284   -1.2192   -0.7823 H   0  0  0  0  0  0  0  0  0  0  0  0
   -5.3376    0.1834   -1.8175 H   0  0  0  0  0  0  0  0  0  0  0  0
  1  2  1  0
  2  3  1  0
  3  4  2  0
  3  5  1  0
  6  5  1  6
  6  7  1  0
  7  8  1  0
  8  9  1  0
  9 10  2  0
  9 11  1  0
 11 12  2  0
 12 13  1  0
 13 14  1  0
 14 15  1  0
 15 16  1  0
 16 17  1  1
 16 18  1  0
 18 19  1  0
 19 20  1  0
 20 21  1  0
 21 22  1  0
 22 23  1  0
 23 24  2  0
 23 25  1  0
 16  2  1  0
 25 20  1  0
 11  6  1  0
 15  6  1  0
  1 26  1  0
  1 27  1  0
  1 28  1  0
  2 29  1  6
  5 30  1  0
  5 31  1  0
  7 32  1  0
  7 33  1  0
 12 34  1  0
 13 35  1  0
 13 36  1  0
 14 37  1  0
 14 38  1  0
 15 39  1  1
 17 40  1  0
 17 41  1  0
 17 42  1  0
 18 43  1  0
 18 44  1  0
 19 45  1  0
 19 46  1  0
 20 47  1  6
 21 48  1  0
 21 49  1  0
 25 50  1  0
 25 51  1  0
M  END

     RDKit          3D

 43 44  0  0  0  0  0  0  0  0999 V2000
    5.1983    0.7817    0.2419 C   0  0  0  0  0  0  0  0  0  0  0  0
    4.5122   -0.3610    0.0481 C   0  0  0  0  0  0  0  0  0  0  0  0
    5.2278   -1.6752    0.2293 C   0  0  0  0  0  0  0  0  0  0  0  0
    3.0328   -0.3463   -0.3148 C   0  0  2  0  0  0  0  0  0  0  0  0
    2.7897    0.4807   -1.4265 O   0  0  0  0  0  0  0  0  0  0  0  0
    2.1701    0.0520    0.9016 C   0  0  0  0  0  0  0  0  0  0  0  0
    0.6787   -0.0444    0.6131 C   0  0  0  0  0  0  0  0  0  0  0  0
   -0.0969    1.1154    0.5033 C   0  0  0  0  0  0  0  0  0  0  0  0
    0.5366    2.3656    0.5573 O   0  0  0  0  0  0  0  0  0  0  0  0
    0.6177    3.2278   -0.5767 C   0  0  0  0  0  0  0  0  0  0  0  0
   -1.4903    1.0077    0.3474 C   0  0  0  0  0  0  0  0  0  0  0  0
   -2.2951    2.1557    0.4484 C   0  0  0  0  0  0  0  0  0  0  0  0
   -3.6606    2.0872    0.2310 C   0  0  0  0  0  0  0  0  0  0  0  0
   -4.2526    0.8769   -0.0957 C   0  0  0  0  0  0  0  0  0  0  0  0
   -3.4929   -0.3091   -0.1672 C   0  0  0  0  0  0  0  0  0  0  0  0
   -4.1195   -1.5072   -0.5470 O   0  0  0  0  0  0  0  0  0  0  0  0
   -5.4956   -1.6436   -0.8901 C   0  0  0  0  0  0  0  0  0  0  0  0
   -2.0862   -0.2712    0.1290 C   0  0  0  0  0  0  0  0  0  0  0  0
   -1.2938   -1.4124    0.2284 N   0  0  0  0  0  0  0  0  0  0  0  0
   -1.8685   -2.7726    0.1168 C   0  0  0  0  0  0  0  0  0  0  0  0
    0.0571   -1.3009    0.4871 C   0  0  0  0  0  0  0  0  0  0  0  0
    0.7703   -2.3359    0.6155 O   0  0  0  0  0  0  0  0  0  0  0  0
    4.7212    1.7530    0.1472 H   0  0  0  0  0  0  0  0  0  0  0  0
    6.2548    0.7574    0.5035 H   0  0  0  0  0  0  0  0  0  0  0  0
    5.7257   -1.6993    1.2232 H   0  0  0  0  0  0  0  0  0  0  0  0
    5.9913   -1.7969   -0.5699 H   0  0  0  0  0  0  0  0  0  0  0  0
    4.5192   -2.5271    0.1873 H   0  0  0  0  0  0  0  0  0  0  0  0
    2.7372   -1.3728   -0.6208 H   0  0  0  0  0  0  0  0  0  0  0  0
    2.8874    1.4278   -1.1215 H   0  0  0  0  0  0  0  0  0  0  0  0
    2.4027   -0.6274    1.7517 H   0  0  0  0  0  0  0  0  0  0  0  0
    2.4593    1.0700    1.2459 H   0  0  0  0  0  0  0  0  0  0  0  0
    1.4130    3.9840   -0.4035 H   0  0  0  0  0  0  0  0  0  0  0  0
   -0.3372    3.7613   -0.7384 H   0  0  0  0  0  0  0  0  0  0  0  0
    0.8645    2.6470   -1.4896 H   0  0  0  0  0  0  0  0  0  0  0  0
   -1.8746    3.1133    0.7318 H   0  0  0  0  0  0  0  0  0  0  0  0
   -4.2666    2.9821    0.3094 H   0  0  0  0  0  0  0  0  0  0  0  0
   -5.3183    0.8732   -0.2848 H   0  0  0  0  0  0  0  0  0  0  0  0
   -5.7444   -0.9781   -1.7447 H   0  0  0  0  0  0  0  0  0  0  0  0
   -5.6854   -2.6960   -1.1861 H   0  0  0  0  0  0  0  0  0  0  0  0
   -6.1304   -1.4012   -0.0111 H   0  0  0  0  0  0  0  0  0  0  0  0
   -2.7065   -2.8920    0.8368 H   0  0  0  0  0  0  0  0  0  0  0  0
   -2.1998   -2.9670   -0.9272 H   0  0  0  0  0  0  0  0  0  0  0  0
   -1.1523   -3.5821    0.3657 H   0  0  0  0  0  0  0  0  0  0  0  0
  1  2  2  3
  2  3  1  0
  2  4  1  0
  4  5  1  0
  4  6  1  0
  6  7  1  0
  7  8  2  0
  8  9  1  0
  9 10  1  0
  8 11  1  0
 11 12  2  0
 12 13  1  0
 13 14  2  0
 14 15  1  0
 15 16  1  0
 16 17  1  0
 15 18  2  0
 18 19  1  0
 19 20  1  0
 19 21  1  0
 21 22  2  0
 21  7  1  0
 18 11  1  0
  1 23  1  0
  1 24  1  0
  3 25  1  0
  3 26  1  0
  3 27  1  0
  4 28  1  6
  5 29  1  0
  6 30  1  0
  6 31  1  0
 10 32  1  0
 10 33  1  0
 10 34  1  0
 12 35  1  0
 13 36  1  0
 14 37  1  0
 17 38  1  0
 17 39  1  0
 17 40  1  0
 20 41  1  0
 20 42  1  0
 20 43  1  0
M  END

     RDKit          3D

 46 47  0  0  0  0  0  0  0  0999 V2000
   -3.0159    1.9505   -0.1719 C   0  0  0  0  0  0  0  0  0  0  0  0
   -2.9833    0.6505   -0.5283 C   0  0  0  0  0  0  0  0  0  0  0  0
   -2.7114    0.3005   -1.9657 C   0  0  0  0  0  0  0  0  0  0  0  0
   -3.1885   -0.4690    0.4905 C   0  0  1  0  0  0  0  0  0  0  0  0
   -1.9457   -1.4040    0.6303 C   0  0  0  0  0  0  0  0  0  0  0  0
   -0.5985   -0.7461    0.3486 C   0  0  0  0  0  0  0  0  0  0  0  0
    0.2634   -1.2663   -0.6334 C   0  0  0  0  0  0  0  0  0  0  0  0
   -0.0930   -2.4180   -1.3461 O   0  0  0  0  0  0  0  0  0  0  0  0
    0.1908   -3.7165   -0.8396 C   0  0  0  0  0  0  0  0  0  0  0  0
    1.5043   -0.6511   -0.8733 C   0  0  0  0  0  0  0  0  0  0  0  0
    2.3768   -1.1826   -1.8408 C   0  0  0  0  0  0  0  0  0  0  0  0
    3.6321   -0.6252   -2.0499 C   0  0  0  0  0  0  0  0  0  0  0  0
    4.0544    0.4432   -1.2707 C   0  0  0  0  0  0  0  0  0  0  0  0
    3.2114    1.0001   -0.2812 C   0  0  0  0  0  0  0  0  0  0  0  0
    3.6947    2.0135    0.5622 O   0  0  0  0  0  0  0  0  0  0  0  0
    5.0201    2.5338    0.5493 C   0  0  0  0  0  0  0  0  0  0  0  0
    1.8817    0.4910   -0.1106 C   0  0  0  0  0  0  0  0  0  0  0  0
    0.9683    1.0424    0.7801 N   0  0  0  0  0  0  0  0  0  0  0  0
    1.1720    2.3740    1.3890 C   0  0  0  0  0  0  0  0  0  0  0  0
   -0.1908    0.3780    1.0874 C   0  0  0  0  0  0  0  0  0  0  0  0
   -0.9104    0.7754    2.0445 O   0  0  0  0  0  0  0  0  0  0  0  0
   -3.5436    0.0530    1.7665 O   0  0  0  0  0  0  0  0  0  0  0  0
   -4.4861   -0.7792    2.4035 C   0  0  0  0  0  0  0  0  0  0  0  0
   -3.2112    2.2652    0.8507 H   0  0  0  0  0  0  0  0  0  0  0  0
   -2.8543    2.7240   -0.9140 H   0  0  0  0  0  0  0  0  0  0  0  0
   -1.7024    0.6750   -2.2453 H   0  0  0  0  0  0  0  0  0  0  0  0
   -3.4733    0.7725   -2.6281 H   0  0  0  0  0  0  0  0  0  0  0  0
   -2.7395   -0.8070   -2.1243 H   0  0  0  0  0  0  0  0  0  0  0  0
   -4.0247   -1.0795    0.0629 H   0  0  0  0  0  0  0  0  0  0  0  0
   -1.9087   -1.8560    1.6557 H   0  0  0  0  0  0  0  0  0  0  0  0
   -2.1083   -2.2591   -0.0608 H   0  0  0  0  0  0  0  0  0  0  0  0
    1.2835   -3.8840   -0.8210 H   0  0  0  0  0  0  0  0  0  0  0  0
   -0.2299   -3.8294    0.1872 H   0  0  0  0  0  0  0  0  0  0  0  0
   -0.2760   -4.4679   -1.5054 H   0  0  0  0  0  0  0  0  0  0  0  0
    2.0947   -2.0363   -2.4427 H   0  0  0  0  0  0  0  0  0  0  0  0
    4.2905   -1.0534   -2.7916 H   0  0  0  0  0  0  0  0  0  0  0  0
    5.0574    0.8181   -1.4311 H   0  0  0  0  0  0  0  0  0  0  0  0
    5.7547    1.7283    0.7809 H   0  0  0  0  0  0  0  0  0  0  0  0
    5.1047    3.3271    1.3199 H   0  0  0  0  0  0  0  0  0  0  0  0
    5.2445    2.9858   -0.4411 H   0  0  0  0  0  0  0  0  0  0  0  0
    1.5396    3.0925    0.6262 H   0  0  0  0  0  0  0  0  0  0  0  0
    0.2236    2.8222    1.7483 H   0  0  0  0  0  0  0  0  0  0  0  0
    1.8666    2.2974    2.2510 H   0  0  0  0  0  0  0  0  0  0  0  0
   -4.5752   -0.4798    3.4681 H   0  0  0  0  0  0  0  0  0  0  0  0
   -4.1746   -1.8456    2.3839 H   0  0  0  0  0  0  0  0  0  0  0  0
   -5.4848   -0.6578    1.9300 H   0  0  0  0  0  0  0  0  0  0  0  0
  1  2  2  3
  2  3  1  0
  2  4  1  0
  4  5  1  0
  5  6  1  0
  6  7  2  0
  7  8  1  0
  8  9  1  0
  7 10  1  0
 10 11  2  0
 11 12  1  0
 12 13  2  0
 13 14  1  0
 14 15  1  0
 15 16  1  0
 14 17  2  0
 17 18  1  0
 18 19  1  0
 18 20  1  0
 20 21  2  0
  4 22  1  0
 22 23  1  0
 20  6  1  0
 17 10  1  0
  1 24  1  0
  1 25  1  0
  3 26  1  0
  3 27  1  0
  3 28  1  0
  4 29  1  6
  5 30  1  0
  5 31  1  0
  9 32  1  0
  9 33  1  0
  9 34  1  0
 11 35  1  0
 12 36  1  0
 13 37  1  0
 16 38  1  0
 16 39  1  0
 16 40  1  0
 19 41  1  0
 19 42  1  0
 19 43  1  0
 23 44  1  0
 23 45  1  0
 23 46  1  0
M  END

     RDKit          3D

 55 56  0  0  0  0  0  0  0  0999 V2000
    0.7409    2.4997    1.7292 C   0  0  0  0  0  0  0  0  0  0  0  0
   -0.0260    1.3987    1.6125 C   0  0  0  0  0  0  0  0  0  0  0  0
   -1.2312    1.2406    2.4832 C   0  0  0  0  0  0  0  0  0  0  0  0
   -2.4883    1.3837    1.6229 C   0  0  0  0  0  0  0  0  0  0  0  0
   -2.5209    0.5094    0.3198 C   0  0  2  0  0  0  0  0  0  0  0  0
   -3.2478   -0.8999    0.4438 C   0  0  0  0  0  0  0  0  0  0  0  0
   -4.6893   -0.7249    1.0016 C   0  0  0  0  0  0  0  0  0  0  0  0
   -2.5169   -1.8691    1.4032 C   0  0  0  0  0  0  0  0  0  0  0  0
   -3.3827   -1.5830   -0.9681 C   0  0  0  0  0  0  0  0  0  0  0  0
   -2.5037   -0.9741   -2.0684 C   0  0  0  0  0  0  0  0  0  0  0  0
   -1.1163   -0.6501   -1.5334 C   0  0  0  0  0  0  0  0  0  0  0  0
   -1.1383    0.5087   -0.4839 C   0  0  1  0  0  0  0  0  0  0  0  0
   -1.0245    1.8531   -1.2601 C   0  0  0  0  0  0  0  0  0  0  0  0
    0.0929    0.3687    0.4951 C   0  0  1  0  0  0  0  0  0  0  0  0
    1.4825    0.3330   -0.2083 C   0  0  0  0  0  0  0  0  0  0  0  0
    2.5997   -0.1288    0.7397 C   0  0  0  0  0  0  0  0  0  0  0  0
    3.9401   -0.0949    0.0394 C   0  0  0  0  0  0  0  0  0  0  0  0
    4.6718    1.2251   -0.0573 C   0  0  0  0  0  0  0  0  0  0  0  0
    4.4256   -1.2173   -0.5393 C   0  0  0  0  0  0  0  0  0  0  0  0
    5.7483   -1.2646   -1.2655 C   0  0  0  0  0  0  0  0  0  0  0  0
    5.9129   -2.5039   -1.8989 O   0  0  0  0  0  0  0  0  0  0  0  0
    0.5495    3.2293    2.5097 H   0  0  0  0  0  0  0  0  0  0  0  0
    1.5711    2.7059    1.0674 H   0  0  0  0  0  0  0  0  0  0  0  0
   -1.2589    2.0019    3.2922 H   0  0  0  0  0  0  0  0  0  0  0  0
   -1.1972    0.2555    2.9850 H   0  0  0  0  0  0  0  0  0  0  0  0
   -3.3694    1.2137    2.2655 H   0  0  0  0  0  0  0  0  0  0  0  0
   -2.5644    2.4496    1.3206 H   0  0  0  0  0  0  0  0  0  0  0  0
   -3.2346    1.0751   -0.3213 H   0  0  0  0  0  0  0  0  0  0  0  0
   -5.2695   -1.6654    0.8856 H   0  0  0  0  0  0  0  0  0  0  0  0
   -4.7047   -0.4959    2.0874 H   0  0  0  0  0  0  0  0  0  0  0  0
   -5.2355    0.0748    0.4635 H   0  0  0  0  0  0  0  0  0  0  0  0
   -2.4127   -1.4448    2.4145 H   0  0  0  0  0  0  0  0  0  0  0  0
   -3.1023   -2.8092    1.5215 H   0  0  0  0  0  0  0  0  0  0  0  0
   -1.5252   -2.1654    1.0204 H   0  0  0  0  0  0  0  0  0  0  0  0
   -3.1482   -2.6678   -0.9003 H   0  0  0  0  0  0  0  0  0  0  0  0
   -4.4268   -1.5322   -1.3450 H   0  0  0  0  0  0  0  0  0  0  0  0
   -2.4155   -1.7023   -2.9070 H   0  0  0  0  0  0  0  0  0  0  0  0
   -2.9818   -0.0584   -2.4793 H   0  0  0  0  0  0  0  0  0  0  0  0
   -0.4634   -0.3977   -2.3972 H   0  0  0  0  0  0  0  0  0  0  0  0
   -0.6923   -1.5818   -1.0976 H   0  0  0  0  0  0  0  0  0  0  0  0
   -1.8821    1.9912   -1.9534 H   0  0  0  0  0  0  0  0  0  0  0  0
   -1.0028    2.7184   -0.5659 H   0  0  0  0  0  0  0  0  0  0  0  0
   -0.1067    1.8869   -1.8826 H   0  0  0  0  0  0  0  0  0  0  0  0
    0.0044   -0.6171    0.9922 H   0  0  0  0  0  0  0  0  0  0  0  0
    1.4570   -0.3893   -1.0494 H   0  0  0  0  0  0  0  0  0  0  0  0
    1.7381    1.3200   -0.6501 H   0  0  0  0  0  0  0  0  0  0  0  0
    2.6438    0.5180    1.6393 H   0  0  0  0  0  0  0  0  0  0  0  0
    2.3766   -1.1576    1.1006 H   0  0  0  0  0  0  0  0  0  0  0  0
    4.7658    1.5321   -1.1193 H   0  0  0  0  0  0  0  0  0  0  0  0
    4.1266    2.0244    0.4856 H   0  0  0  0  0  0  0  0  0  0  0  0
    5.6846    1.1336    0.3935 H   0  0  0  0  0  0  0  0  0  0  0  0
    3.8484   -2.1371   -0.4776 H   0  0  0  0  0  0  0  0  0  0  0  0
    6.5817   -1.0799   -0.5506 H   0  0  0  0  0  0  0  0  0  0  0  0
    5.7725   -0.4764   -2.0467 H   0  0  0  0  0  0  0  0  0  0  0  0
    6.1450   -3.1618   -1.1914 H   0  0  0  0  0  0  0  0  0  0  0  0
  1  2  2  3
  2  3  1  0
  3  4  1  0
  4  5  1  0
  5  6  1  0
  6  7  1  0
  6  8  1  0
  6  9  1  0
  9 10  1  0
 10 11  1  0
 11 12  1  0
 12 13  1  6
 12 14  1  0
 14 15  1  0
 15 16  1  0
 16 17  1  0
 17 18  1  0
 17 19  2  0
 19 20  1  0
 20 21  1  0
 14  2  1  0
 12  5  1  0
  1 22  1  0
  1 23  1  0
  3 24  1  0
  3 25  1  0
  4 26  1  0
  4 27  1  0
  5 28  1  6
  7 29  1  0
  7 30  1  0
  7 31  1  0
  8 32  1  0
  8 33  1  0
  8 34  1  0
  9 35  1  0
  9 36  1  0
 10 37  1  0
 10 38  1  0
 11 39  1  0
 11 40  1  0
 13 41  1  0
 13 42  1  0
 13 43  1  0
 14 44  1  1
 15 45  1  0
 15 46  1  0
 16 47  1  0
 16 48  1  0
 18 49  1  0
 18 50  1  0
 18 51  1  0
 19 52  1  0
 20 53  1  0
 20 54  1  0
 21 55  1  0
M  END

     RDKit          3D

 55 58  0  0  0  0  0  0  0  0999 V2000
   -3.0971    1.0458    1.8332 C   0  0  0  0  0  0  0  0  0  0  0  0
   -3.0221    0.5754    0.3537 C   0  0  0  0  0  0  0  0  0  0  0  0
   -3.9820    1.5053   -0.4335 C   0  0  0  0  0  0  0  0  0  0  0  0
   -3.6112   -0.8584    0.2632 C   0  0  0  0  0  0  0  0  0  0  0  0
   -2.7276   -1.9803    0.8454 C   0  0  0  0  0  0  0  0  0  0  0  0
   -1.2286   -1.6457    0.9220 C   0  0  0  0  0  0  0  0  0  0  0  0
   -0.7370   -0.7273   -0.2394 C   0  0  1  0  0  0  0  0  0  0  0  0
   -1.0143   -1.4617   -1.6010 C   0  0  0  0  0  0  0  0  0  0  0  0
   -1.5048    0.6489   -0.1507 C   0  0  1  0  0  0  0  0  0  0  0  0
   -1.2620    1.4778   -1.4273 C   0  0  0  0  0  0  0  0  0  0  0  0
    0.2161    1.5322   -1.8833 C   0  0  0  0  0  0  0  0  0  0  0  0
    1.2835    0.7542   -1.0535 C   0  0  1  0  0  0  0  0  0  0  0  0
    2.0872    1.6677   -0.1320 C   0  0  0  0  0  0  0  0  0  0  0  0
    2.5323    0.7616    1.0212 C   0  0  1  0  0  0  0  0  0  0  0  0
    1.2711   -0.0197    1.2976 C   0  0  0  0  0  0  0  0  0  0  0  0
    0.8236   -0.4329   -0.1287 C   0  0  1  0  0  0  0  0  0  0  0  0
    1.7059   -1.6745   -0.4750 C   0  0  0  0  0  0  0  0  0  0  0  0
    3.2124   -1.5519   -0.0725 C   0  0  0  0  0  0  0  0  0  0  0  0
    3.6945   -0.2445    0.6757 C   0  0  1  0  0  0  0  0  0  0  0  0
    4.8123    0.4229   -0.1708 C   0  0  0  0  0  0  0  0  0  0  0  0
    4.2680   -0.6598    1.8976 O   0  0  0  0  0  0  0  0  0  0  0  0
   -4.1410    0.9578    2.2214 H   0  0  0  0  0  0  0  0  0  0  0  0
   -2.4389    0.4375    2.4912 H   0  0  0  0  0  0  0  0  0  0  0  0
   -2.7822    2.1159    1.9166 H   0  0  0  0  0  0  0  0  0  0  0  0
   -3.6849    2.5715   -0.3443 H   0  0  0  0  0  0  0  0  0  0  0  0
   -5.0203    1.4258   -0.0399 H   0  0  0  0  0  0  0  0  0  0  0  0
   -4.0243    1.2297   -1.5110 H   0  0  0  0  0  0  0  0  0  0  0  0
   -3.8450   -1.0993   -0.7932 H   0  0  0  0  0  0  0  0  0  0  0  0
   -4.5970   -0.8979    0.7802 H   0  0  0  0  0  0  0  0  0  0  0  0
   -2.8643   -2.8905    0.2192 H   0  0  0  0  0  0  0  0  0  0  0  0
   -3.0827   -2.2444    1.8680 H   0  0  0  0  0  0  0  0  0  0  0  0
   -0.6762   -2.6059    0.9401 H   0  0  0  0  0  0  0  0  0  0  0  0
   -1.0307   -1.1607    1.8963 H   0  0  0  0  0  0  0  0  0  0  0  0
   -0.3728   -1.0831   -2.4188 H   0  0  0  0  0  0  0  0  0  0  0  0
   -0.8197   -2.5520   -1.5117 H   0  0  0  0  0  0  0  0  0  0  0  0
   -2.0520   -1.3339   -1.9584 H   0  0  0  0  0  0  0  0  0  0  0  0
   -0.9912    1.2733    0.6023 H   0  0  0  0  0  0  0  0  0  0  0  0
   -1.5994    2.5269   -1.2528 H   0  0  0  0  0  0  0  0  0  0  0  0
   -1.8774    1.0741   -2.2634 H   0  0  0  0  0  0  0  0  0  0  0  0
    0.2435    1.1548   -2.9318 H   0  0  0  0  0  0  0  0  0  0  0  0
    0.5235    2.5979   -1.9764 H   0  0  0  0  0  0  0  0  0  0  0  0
    2.0181    0.3894   -1.8120 H   0  0  0  0  0  0  0  0  0  0  0  0
    1.4255    2.4618    0.2809 H   0  0  0  0  0  0  0  0  0  0  0  0
    2.9237    2.1792   -0.6547 H   0  0  0  0  0  0  0  0  0  0  0  0
    2.8036    1.3894    1.9002 H   0  0  0  0  0  0  0  0  0  0  0  0
    0.5530    0.6298    1.8277 H   0  0  0  0  0  0  0  0  0  0  0  0
    1.4605   -0.8978    1.9619 H   0  0  0  0  0  0  0  0  0  0  0  0
    1.6649   -1.8899   -1.5658 H   0  0  0  0  0  0  0  0  0  0  0  0
    1.2978   -2.5856    0.0119 H   0  0  0  0  0  0  0  0  0  0  0  0
    3.8436   -1.7624   -0.9757 H   0  0  0  0  0  0  0  0  0  0  0  0
    3.4240   -2.4290    0.5884 H   0  0  0  0  0  0  0  0  0  0  0  0
    5.1118    1.3905    0.2775 H   0  0  0  0  0  0  0  0  0  0  0  0
    5.7079   -0.2349   -0.2224 H   0  0  0  0  0  0  0  0  0  0  0  0
    4.4688    0.6025   -1.2134 H   0  0  0  0  0  0  0  0  0  0  0  0
    4.7101    0.1241    2.3201 H   0  0  0  0  0  0  0  0  0  0  0  0
  1  2  1  0
  2  3  1  0
  2  4  1  0
  4  5  1  0
  5  6  1  0
  6  7  1  0
  7  8  1  6
  7  9  1  0
  9 10  1  0
 10 11  1  0
 11 12  1  0
 12 13  1  0
 13 14  1  0
 14 15  1  0
 15 16  1  0
 16 17  1  6
 17 18  1  0
 18 19  1  0
 19 20  1  0
 19 21  1  1
  9  2  1  0
 16 12  1  0
 16  7  1  0
 19 14  1  0
  1 22  1  0
  1 23  1  0
  1 24  1  0
  3 25  1  0
  3 26  1  0
  3 27  1  0
  4 28  1  0
  4 29  1  0
  5 30  1  0
  5 31  1  0
  6 32  1  0
  6 33  1  0
  8 34  1  0
  8 35  1  0
  8 36  1  0
  9 37  1  1
 10 38  1  0
 10 39  1  0
 11 40  1  0
 11 41  1  0
 12 42  1  6
 13 43  1  0
 13 44  1  0
 14 45  1  1
 15 46  1  0
 15 47  1  0
 17 48  1  0
 17 49  1  0
 18 50  1  0
 18 51  1  0
 20 52  1  0
 20 53  1  0
 20 54  1  0
 21 55  1  0
M  END

     RDKit          3D

 39 42  0  0  0  0  0  0  0  0999 V2000
    0.4595   -0.4774   -1.8540 C   0  0  0  0  0  0  0  0  0  0  0  0
    0.5602   -1.0575   -0.4112 C   0  0  1  0  0  0  0  0  0  0  0  0
   -0.8065   -1.6806   -0.0459 C   0  0  0  0  0  0  0  0  0  0  0  0
   -1.8856   -0.6176    0.1020 C   0  0  0  0  0  0  0  0  0  0  0  0
   -3.2528   -0.9573   -0.0535 C   0  0  0  0  0  0  0  0  0  0  0  0
   -3.6799   -2.2725   -0.2549 O   0  0  0  0  0  0  0  0  0  0  0  0
   -4.2289    0.0390    0.0060 C   0  0  0  0  0  0  0  0  0  0  0  0
   -3.8795    1.3615    0.2667 C   0  0  0  0  0  0  0  0  0  0  0  0
   -2.5439    1.7105    0.4860 C   0  0  0  0  0  0  0  0  0  0  0  0
   -2.2136    3.0335    0.7817 O   0  0  0  0  0  0  0  0  0  0  0  0
   -1.5352    0.7302    0.4121 C   0  0  0  0  0  0  0  0  0  0  0  0
   -0.1028    1.1304    0.7359 C   0  0  2  0  0  0  0  0  0  0  0  0
    0.3931    2.1133   -0.1483 O   0  0  0  0  0  0  0  0  0  0  0  0
    1.8093    1.9954   -0.1453 C   0  0  0  0  0  0  0  0  0  0  0  0
    2.2215    0.6869    0.5719 C   0  0  2  0  0  0  0  0  0  0  0  0
    2.7471    0.9701    1.8535 O   0  0  0  0  0  0  0  0  0  0  0  0
    3.2924   -0.1473   -0.1953 C   0  0  0  0  0  0  0  0  0  0  0  0
    3.0846   -1.6687   -0.0449 C   0  0  0  0  0  0  0  0  0  0  0  0
    1.6751   -2.0872   -0.3955 C   0  0  0  0  0  0  0  0  0  0  0  0
    1.4505   -3.2541   -0.6835 O   0  0  0  0  0  0  0  0  0  0  0  0
    0.8797   -0.0243    0.7123 C   0  0  2  0  0  0  0  0  0  0  0  0
    1.3990   -0.0231   -2.2087 H   0  0  0  0  0  0  0  0  0  0  0  0
   -0.3324    0.2927   -1.9482 H   0  0  0  0  0  0  0  0  0  0  0  0
    0.2110   -1.2903   -2.5706 H   0  0  0  0  0  0  0  0  0  0  0  0
   -0.7311   -2.2479    0.9087 H   0  0  0  0  0  0  0  0  0  0  0  0
   -1.0819   -2.3968   -0.8498 H   0  0  0  0  0  0  0  0  0  0  0  0
   -3.0662   -3.0733   -0.1961 H   0  0  0  0  0  0  0  0  0  0  0  0
   -5.2721   -0.2188   -0.1368 H   0  0  0  0  0  0  0  0  0  0  0  0
   -4.6544    2.1155    0.3181 H   0  0  0  0  0  0  0  0  0  0  0  0
   -2.9180    3.7599    0.8348 H   0  0  0  0  0  0  0  0  0  0  0  0
   -0.1175    1.5628    1.7636 H   0  0  0  0  0  0  0  0  0  0  0  0
    2.2467    2.8832    0.3592 H   0  0  0  0  0  0  0  0  0  0  0  0
    2.1619    2.0223   -1.1962 H   0  0  0  0  0  0  0  0  0  0  0  0
    2.1347    1.5947    2.3280 H   0  0  0  0  0  0  0  0  0  0  0  0
    4.3038    0.1094    0.1858 H   0  0  0  0  0  0  0  0  0  0  0  0
    3.3289    0.1023   -1.2718 H   0  0  0  0  0  0  0  0  0  0  0  0
    3.2996   -1.9731    1.0037 H   0  0  0  0  0  0  0  0  0  0  0  0
    3.8015   -2.1930   -0.7148 H   0  0  0  0  0  0  0  0  0  0  0  0
    0.8422   -0.5530    1.6952 H   0  0  0  0  0  0  0  0  0  0  0  0
  2  1  1  6
  2  3  1  0
  3  4  1  0
  4  5  2  0
  5  6  1  0
  5  7  1  0
  7  8  2  0
  8  9  1  0
  9 10  1  0
  9 11  2  0
 11 12  1  0
 12 13  1  0
 13 14  1  0
 14 15  1  0
 15 16  1  1
 15 17  1  0
 17 18  1  0
 18 19  1  0
 19 20  2  0
 15 21  1  0
 19  2  1  0
 21  2  1  0
 11  4  1  0
 21 12  1  0
  1 22  1  0
  1 23  1  0
  1 24  1  0
  3 25  1  0
  3 26  1  0
  6 27  1  0
  7 28  1  0
  8 29  1  0
 10 30  1  0
 12 31  1  1
 14 32  1  0
 14 33  1  0
 16 34  1  0
 17 35  1  0
 17 36  1  0
 18 37  1  0
 18 38  1  0
 21 39  1  1
M  END

     RDKit          3D

 83 87  0  0  0  0  0  0  0  0999 V2000
    8.7320    1.5330    0.6344 C   0  0  0  0  0  0  0  0  0  0  0  0
    7.9600    0.2106    0.5973 C   0  0  0  0  0  0  0  0  0  0  0  0
    7.8928   -0.4055    2.0020 C   0  0  0  0  0  0  0  0  0  0  0  0
    6.5590    0.4421   -0.0231 C   0  0  0  0  0  0  0  0  0  0  0  0
    5.8090   -0.8779   -0.2878 C   0  0  0  0  0  0  0  0  0  0  0  0
    4.5852   -0.7078   -1.2138 C   0  0  0  0  0  0  0  0  0  0  0  0
    3.3951    0.0288   -0.5333 C   0  0  1  0  0  0  0  0  0  0  0  0
    3.4614    1.5341   -0.8460 C   0  0  0  0  0  0  0  0  0  0  0  0
    2.0074   -0.5679   -0.9731 C   0  0  1  0  0  0  0  0  0  0  0  0
    1.8988   -2.0888   -0.7111 C   0  0  0  0  0  0  0  0  0  0  0  0
    0.4454   -2.3920   -0.3328 C   0  0  0  0  0  0  0  0  0  0  0  0
   -0.3469   -1.1210   -0.6305 C   0  0  1  0  0  0  0  0  0  0  0  0
   -0.7739   -1.1532   -2.1465 C   0  0  0  0  0  0  0  0  0  0  0  0
   -1.6126   -0.9418    0.2633 C   0  0  2  0  0  0  0  0  0  0  0  0
   -2.6877   -2.0469    0.0083 C   0  0  0  0  0  0  0  0  0  0  0  0
   -4.0417   -1.5131   -0.4575 C   0  0  0  0  0  0  0  0  0  0  0  0
   -4.5575   -0.4671    0.5605 C   0  0  2  0  0  0  0  0  0  0  0  0
   -6.0927   -0.1236    0.4343 C   0  0  0  0  0  0  0  0  0  0  0  0
   -6.5313    0.7261    1.6762 C   0  0  0  0  0  0  0  0  0  0  0  0
   -6.9432   -1.4247    0.4479 C   0  0  0  0  0  0  0  0  0  0  0  0
   -6.3611    0.6407   -0.9042 C   0  0  1  0  0  0  0  0  0  0  0  0
   -7.6626    1.1755   -0.8867 O   0  0  0  0  0  0  0  0  0  0  0  0
   -5.3300    1.7555   -1.2552 C   0  0  0  0  0  0  0  0  0  0  0  0
   -4.3367    2.0854   -0.1376 C   0  0  0  0  0  0  0  0  0  0  0  0
   -3.6642    0.7943    0.4059 C   0  0  1  0  0  0  0  0  0  0  0  0
   -2.6858    1.0541    1.5524 C   0  0  0  0  0  0  0  0  0  0  0  0
   -2.1371    0.5484    0.2050 C   0  0  1  0  0  0  0  0  0  0  0  0
   -1.3306    1.6284   -0.6101 C   0  0  0  0  0  0  0  0  0  0  0  0
    0.1783    1.3435   -0.9104 C   0  0  0  0  0  0  0  0  0  0  0  0
    0.6959    0.0030   -0.3197 C   0  0  2  0  0  0  0  0  0  0  0  0
    0.9392    0.2263    1.2229 C   0  0  0  0  0  0  0  0  0  0  0  0
    8.2079    2.2624    1.2970 H   0  0  0  0  0  0  0  0  0  0  0  0
    9.7622    1.3718    1.0198 H   0  0  0  0  0  0  0  0  0  0  0  0
    8.8081    1.9686   -0.3880 H   0  0  0  0  0  0  0  0  0  0  0  0
    8.5322   -0.4894   -0.0594 H   0  0  0  0  0  0  0  0  0  0  0  0
    7.2942    0.2399    2.6859 H   0  0  0  0  0  0  0  0  0  0  0  0
    7.4389   -1.4138    1.9744 H   0  0  0  0  0  0  0  0  0  0  0  0
    8.9131   -0.5131    2.4230 H   0  0  0  0  0  0  0  0  0  0  0  0
    5.9600    1.0823    0.6562 H   0  0  0  0  0  0  0  0  0  0  0  0
    6.6992    0.9709   -0.9969 H   0  0  0  0  0  0  0  0  0  0  0  0
    5.4833   -1.3240    0.6735 H   0  0  0  0  0  0  0  0  0  0  0  0
    6.4971   -1.5984   -0.7659 H   0  0  0  0  0  0  0  0  0  0  0  0
    4.3035   -1.7278   -1.5123 H   0  0  0  0  0  0  0  0  0  0  0  0
    4.8762   -0.2119   -2.1616 H   0  0  0  0  0  0  0  0  0  0  0  0
    3.4988   -0.1069    0.5645 H   0  0  0  0  0  0  0  0  0  0  0  0
    3.1297    2.1358    0.0455 H   0  0  0  0  0  0  0  0  0  0  0  0
    4.4954    1.8808   -1.0798 H   0  0  0  0  0  0  0  0  0  0  0  0
    2.8332    1.8065   -1.7280 H   0  0  0  0  0  0  0  0  0  0  0  0
    1.9563   -0.4025   -2.0707 H   0  0  0  0  0  0  0  0  0  0  0  0
    2.1872   -2.6574   -1.6176 H   0  0  0  0  0  0  0  0  0  0  0  0
    2.5706   -2.3955    0.1232 H   0  0  0  0  0  0  0  0  0  0  0  0
    0.4030   -2.6400    0.7468 H   0  0  0  0  0  0  0  0  0  0  0  0
    0.0767   -3.2924   -0.8831 H   0  0  0  0  0  0  0  0  0  0  0  0
   -1.5960   -0.4425   -2.3676 H   0  0  0  0  0  0  0  0  0  0  0  0
   -1.1350   -2.1581   -2.4582 H   0  0  0  0  0  0  0  0  0  0  0  0
    0.0542   -0.9169   -2.8439 H   0  0  0  0  0  0  0  0  0  0  0  0
   -1.2870   -1.1211    1.3080 H   0  0  0  0  0  0  0  0  0  0  0  0
   -2.8394   -2.6150    0.9494 H   0  0  0  0  0  0  0  0  0  0  0  0
   -2.3420   -2.8095   -0.7216 H   0  0  0  0  0  0  0  0  0  0  0  0
   -4.7051   -2.3970   -0.5118 H   0  0  0  0  0  0  0  0  0  0  0  0
   -3.9631   -1.0816   -1.4827 H   0  0  0  0  0  0  0  0  0  0  0  0
   -4.4235   -0.9153    1.5761 H   0  0  0  0  0  0  0  0  0  0  0  0
   -5.7362    0.7766    2.4630 H   0  0  0  0  0  0  0  0  0  0  0  0
   -7.4444    0.3265    2.1736 H   0  0  0  0  0  0  0  0  0  0  0  0
   -6.7789    1.7769    1.4057 H   0  0  0  0  0  0  0  0  0  0  0  0
   -6.6409   -2.0932    1.2934 H   0  0  0  0  0  0  0  0  0  0  0  0
   -8.0246   -1.1974    0.5519 H   0  0  0  0  0  0  0  0  0  0  0  0
   -6.8505   -1.9948   -0.4985 H   0  0  0  0  0  0  0  0  0  0  0  0
   -6.2912   -0.1144   -1.7267 H   0  0  0  0  0  0  0  0  0  0  0  0
   -7.9190    1.3275   -1.8366 H   0  0  0  0  0  0  0  0  0  0  0  0
   -5.8597    2.6887   -1.5502 H   0  0  0  0  0  0  0  0  0  0  0  0
   -4.7456    1.4368   -2.1414 H   0  0  0  0  0  0  0  0  0  0  0  0
   -4.8579    2.6041    0.6898 H   0  0  0  0  0  0  0  0  0  0  0  0
   -3.6133    2.8282   -0.5146 H   0  0  0  0  0  0  0  0  0  0  0  0
   -2.7386    0.3094    2.3813 H   0  0  0  0  0  0  0  0  0  0  0  0
   -2.5364    2.1328    1.7869 H   0  0  0  0  0  0  0  0  0  0  0  0
   -1.3906    2.6184   -0.1229 H   0  0  0  0  0  0  0  0  0  0  0  0
   -1.8422    1.7463   -1.5882 H   0  0  0  0  0  0  0  0  0  0  0  0
    0.3314    1.3529   -2.0042 H   0  0  0  0  0  0  0  0  0  0  0  0
    0.7749    2.1907   -0.5191 H   0  0  0  0  0  0  0  0  0  0  0  0
    1.2658   -0.7079    1.7136 H   0  0  0  0  0  0  0  0  0  0  0  0
    0.0369    0.6084    1.7395 H   0  0  0  0  0  0  0  0  0  0  0  0
    1.7073    0.9957    1.3940 H   0  0  0  0  0  0  0  0  0  0  0  0
  1  2  1  0
  2  3  1  0
  2  4  1  0
  4  5  1  0
  5  6  1  0
  6  7  1  0
  7  8  1  0
  7  9  1  0
  9 10  1  0
 10 11  1  0
 11 12  1  0
 12 13  1  6
 12 14  1  0
 14 15  1  0
 15 16  1  0
 16 17  1  0
 17 18  1  0
 18 19  1  0
 18 20  1  0
 18 21  1  0
 21 22  1  0
 21 23  1  0
 23 24  1  0
 25 24  1  6
 25 26  1  0
 27 26  1  1
 27 28  1  0
 28 29  1  0
 29 30  1  0
 30 31  1  1
 30  9  1  0
 30 12  1  0
 27 14  1  0
 25 17  1  0
 27 25  1  0
  1 32  1  0
  1 33  1  0
  1 34  1  0
  2 35  1  0
  3 36  1  0
  3 37  1  0
  3 38  1  0
  4 39  1  0
  4 40  1  0
  5 41  1  0
  5 42  1  0
  6 43  1  0
  6 44  1  0
  7 45  1  1
  8 46  1  0
  8 47  1  0
  8 48  1  0
  9 49  1  6
 10 50  1  0
 10 51  1  0
 11 52  1  0
 11 53  1  0
 13 54  1  0
 13 55  1  0
 13 56  1  0
 14 57  1  1
 15 58  1  0
 15 59  1  0
 16 60  1  0
 16 61  1  0
 17 62  1  1
 19 63  1  0
 19 64  1  0
 19 65  1  0
 20 66  1  0
 20 67  1  0
 20 68  1  0
 21 69  1  6
 22 70  1  0
 23 71  1  0
 23 72  1  0
 24 73  1  0
 24 74  1  0
 26 75  1  0
 26 76  1  0
 28 77  1  0
 28 78  1  0
 29 79  1  0
 29 80  1  0
 31 81  1  0
 31 82  1  0
 31 83  1  0
M  END

     RDKit          3D

 86 90  0  0  0  0  0  0  0  0999 V2000
   -4.2669   -2.9095    0.1944 C   0  0  0  0  0  0  0  0  0  0  0  0
   -4.2179   -2.0048    1.1870 C   0  0  0  0  0  0  0  0  0  0  0  0
   -3.5794   -2.4238    2.4908 C   0  0  0  0  0  0  0  0  0  0  0  0
   -4.8039   -0.5904    1.0903 C   0  0  2  0  0  0  0  0  0  0  0  0
   -5.8090   -0.2407   -0.0306 C   0  0  0  0  0  0  0  0  0  0  0  0
   -5.5917    1.2303   -0.3908 C   0  0  0  0  0  0  0  0  0  0  0  0
   -4.5082    1.7958    0.5610 C   0  0  2  0  0  0  0  0  0  0  0  0
   -5.2164    2.6263    1.6646 C   0  0  0  0  0  0  0  0  0  0  0  0
   -3.5326    2.7339   -0.1847 C   0  0  0  0  0  0  0  0  0  0  0  0
   -2.5201    2.0718   -1.1400 C   0  0  0  0  0  0  0  0  0  0  0  0
   -1.9419    0.6342   -0.7723 C   0  0  2  0  0  0  0  0  0  0  0  0
   -2.7204   -0.3888   -1.6506 C   0  0  0  0  0  0  0  0  0  0  0  0
   -2.2802    0.3714    0.7506 C   0  0  1  0  0  0  0  0  0  0  0  0
   -1.3873    1.2425    1.7089 C   0  0  0  0  0  0  0  0  0  0  0  0
   -0.0460    1.6918    1.1174 C   0  0  0  0  0  0  0  0  0  0  0  0
    0.5183    0.5537    0.2554 C   0  0  2  0  0  0  0  0  0  0  0  0
    2.1044    0.4210    0.1528 C   0  0  1  0  0  0  0  0  0  0  0  0
    2.7132    1.6745   -0.5401 C   0  0  0  0  0  0  0  0  0  0  0  0
    2.7157    0.2872    1.5854 C   0  0  0  0  0  0  0  0  0  0  0  0
    4.2318    0.1019    1.5993 C   0  0  0  0  0  0  0  0  0  0  0  0
    4.7932   -0.9806    0.6573 C   0  0  2  0  0  0  0  0  0  0  0  0
    6.1354   -0.5594    0.3495 O   0  0  0  0  0  0  0  0  0  0  0  0
    7.2635   -1.3973    0.2705 C   0  0  0  0  0  0  0  0  0  0  0  0
    8.5422   -0.8254   -0.2452 C   0  0  0  0  0  0  0  0  0  0  0  0
    7.2250   -2.6019    0.6725 O   0  0  0  0  0  0  0  0  0  0  0  0
    3.9816   -1.3051   -0.6751 C   0  0  0  0  0  0  0  0  0  0  0  0
    4.1261   -2.8436   -0.9061 C   0  0  0  0  0  0  0  0  0  0  0  0
    4.6456   -0.6328   -1.9201 C   0  0  0  0  0  0  0  0  0  0  0  0
    2.4390   -0.9528   -0.5493 C   0  0  2  0  0  0  0  0  0  0  0  0
    1.6106   -1.1817   -1.8426 C   0  0  0  0  0  0  0  0  0  0  0  0
    0.0825   -0.9632   -1.6551 C   0  0  0  0  0  0  0  0  0  0  0  0
   -0.3169    0.4482   -1.0892 C   0  0  1  0  0  0  0  0  0  0  0  0
    0.1005    1.4952   -2.1818 C   0  0  0  0  0  0  0  0  0  0  0  0
   -3.7909    0.5760    1.1998 C   0  0  2  0  0  0  0  0  0  0  0  0
   -3.8470   -3.9019    0.3386 H   0  0  0  0  0  0  0  0  0  0  0  0
   -4.7006   -2.7118   -0.7767 H   0  0  0  0  0  0  0  0  0  0  0  0
   -3.5337   -1.5800    3.2079 H   0  0  0  0  0  0  0  0  0  0  0  0
   -2.5461   -2.7825    2.3068 H   0  0  0  0  0  0  0  0  0  0  0  0
   -4.1708   -3.2432    2.9569 H   0  0  0  0  0  0  0  0  0  0  0  0
   -5.4297   -0.5221    2.0134 H   0  0  0  0  0  0  0  0  0  0  0  0
   -5.7251   -0.8576   -0.9389 H   0  0  0  0  0  0  0  0  0  0  0  0
   -6.8500   -0.3952    0.3392 H   0  0  0  0  0  0  0  0  0  0  0  0
   -6.5486    1.7770   -0.3102 H   0  0  0  0  0  0  0  0  0  0  0  0
   -5.3013    1.3208   -1.4578 H   0  0  0  0  0  0  0  0  0  0  0  0
   -4.5281    2.8594    2.5059 H   0  0  0  0  0  0  0  0  0  0  0  0
   -5.5768    3.5937    1.2584 H   0  0  0  0  0  0  0  0  0  0  0  0
   -6.0919    2.0780    2.0736 H   0  0  0  0  0  0  0  0  0  0  0  0
   -2.9565    3.3361    0.5471 H   0  0  0  0  0  0  0  0  0  0  0  0
   -4.1144    3.4842   -0.7639 H   0  0  0  0  0  0  0  0  0  0  0  0
   -1.7254    2.8335   -1.2004 H   0  0  0  0  0  0  0  0  0  0  0  0
   -2.9705    2.0552   -2.1607 H   0  0  0  0  0  0  0  0  0  0  0  0
   -2.5623   -1.4296   -1.3116 H   0  0  0  0  0  0  0  0  0  0  0  0
   -2.4268   -0.2993   -2.7138 H   0  0  0  0  0  0  0  0  0  0  0  0
   -3.7922   -0.2103   -1.6531 H   0  0  0  0  0  0  0  0  0  0  0  0
   -1.9971   -0.6793    0.9645 H   0  0  0  0  0  0  0  0  0  0  0  0
   -1.9023    2.1480    2.0736 H   0  0  0  0  0  0  0  0  0  0  0  0
   -1.1766    0.6481    2.6289 H   0  0  0  0  0  0  0  0  0  0  0  0
   -0.1794    2.6102    0.5154 H   0  0  0  0  0  0  0  0  0  0  0  0
    0.6070    1.9825    1.9566 H   0  0  0  0  0  0  0  0  0  0  0  0
    0.2589   -0.3625    0.8415 H   0  0  0  0  0  0  0  0  0  0  0  0
    2.2100    2.5983   -0.1847 H   0  0  0  0  0  0  0  0  0  0  0  0
    2.6534    1.6134   -1.6373 H   0  0  0  0  0  0  0  0  0  0  0  0
    3.7860    1.8194   -0.3330 H   0  0  0  0  0  0  0  0  0  0  0  0
    2.5224    1.1855    2.1935 H   0  0  0  0  0  0  0  0  0  0  0  0
    2.2482   -0.5721    2.1252 H   0  0  0  0  0  0  0  0  0  0  0  0
    4.5295   -0.1582    2.6398 H   0  0  0  0  0  0  0  0  0  0  0  0
    4.7251    1.0811    1.4163 H   0  0  0  0  0  0  0  0  0  0  0  0
    4.8463   -1.9054    1.2966 H   0  0  0  0  0  0  0  0  0  0  0  0
    8.3112   -0.0389   -0.9945 H   0  0  0  0  0  0  0  0  0  0  0  0
    9.1519   -1.6163   -0.7374 H   0  0  0  0  0  0  0  0  0  0  0  0
    9.1190   -0.3740    0.5908 H   0  0  0  0  0  0  0  0  0  0  0  0
    3.6281   -3.4189   -0.0910 H   0  0  0  0  0  0  0  0  0  0  0  0
    5.1936   -3.1467   -0.9278 H   0  0  0  0  0  0  0  0  0  0  0  0
    3.6940   -3.1723   -1.8713 H   0  0  0  0  0  0  0  0  0  0  0  0
    5.6955   -0.9786   -2.0405 H   0  0  0  0  0  0  0  0  0  0  0  0
    4.6724    0.4698   -1.8460 H   0  0  0  0  0  0  0  0  0  0  0  0
    4.1420   -0.9208   -2.8657 H   0  0  0  0  0  0  0  0  0  0  0  0
    2.0380   -1.7375    0.1378 H   0  0  0  0  0  0  0  0  0  0  0  0
    1.7261   -2.2293   -2.1815 H   0  0  0  0  0  0  0  0  0  0  0  0
    1.9844   -0.5595   -2.6711 H   0  0  0  0  0  0  0  0  0  0  0  0
   -0.2942   -1.7625   -0.9828 H   0  0  0  0  0  0  0  0  0  0  0  0
   -0.3674   -1.1314   -2.6525 H   0  0  0  0  0  0  0  0  0  0  0  0
    0.3350    2.4845   -1.7482 H   0  0  0  0  0  0  0  0  0  0  0  0
   -0.6894    1.6083   -2.9473 H   0  0  0  0  0  0  0  0  0  0  0  0
    0.9531    1.2230   -2.8094 H   0  0  0  0  0  0  0  0  0  0  0  0
   -3.7254    0.7337    2.3062 H   0  0  0  0  0  0  0  0  0  0  0  0
  1  2  2  3
  2  3  1  0
  2  4  1  0
  4  5  1  0
  5  6  1  0
  6  7  1  0
  7  8  1  1
  7  9  1  0
  9 10  1  0
 10 11  1  0
 11 12  1  6
 11 13  1  0
 13 14  1  0
 14 15  1  0
 15 16  1  0
 16 17  1  0
 17 18  1  6
 17 19  1  0
 19 20  1  0
 20 21  1  0
 21 22  1  0
 22 23  1  0
 23 24  1  0
 23 25  2  0
 21 26  1  0
 26 27  1  0
 26 28  1  0
 26 29  1  0
 29 30  1  0
 30 31  1  0
 31 32  1  0
 32 33  1  6
 13 34  1  0
 34  4  1  0
 34  7  1  0
 32 11  1  0
 32 16  1  0
 29 17  1  0
  1 35  1  0
  1 36  1  0
  3 37  1  0
  3 38  1  0
  3 39  1  0
  4 40  1  1
  5 41  1  0
  5 42  1  0
  6 43  1  0
  6 44  1  0
  8 45  1  0
  8 46  1  0
  8 47  1  0
  9 48  1  0
  9 49  1  0
 10 50  1  0
 10 51  1  0
 12 52  1  0
 12 53  1  0
 12 54  1  0
 13 55  1  1
 14 56  1  0
 14 57  1  0
 15 58  1  0
 15 59  1  0
 16 60  1  1
 18 61  1  0
 18 62  1  0
 18 63  1  0
 19 64  1  0
 19 65  1  0
 20 66  1  0
 20 67  1  0
 21 68  1  1
 24 69  1  0
 24 70  1  0
 24 71  1  0
 27 72  1  0
 27 73  1  0
 27 74  1  0
 28 75  1  0
 28 76  1  0
 28 77  1  0
 29 78  1  1
 30 79  1  0
 30 80  1  0
 31 81  1  0
 31 82  1  0
 33 83  1  0
 33 84  1  0
 33 85  1  0
 34 86  1  1
M  END

     RDKit          3D

 84 87  0  0  0  0  0  0  0  0999 V2000
    6.0596   -1.5004    1.7865 C   0  0  0  0  0  0  0  0  0  0  0  0
    5.2443   -0.3608    1.1541 C   0  0  0  0  0  0  0  0  0  0  0  0
    4.0588   -0.7993    0.2174 C   0  0  1  0  0  0  0  0  0  0  0  0
    4.6522   -1.3814   -1.1070 C   0  0  0  0  0  0  0  0  0  0  0  0
    3.2409   -1.9071    0.9552 C   0  0  0  0  0  0  0  0  0  0  0  0
    1.8722   -2.2172    0.3350 C   0  0  0  0  0  0  0  0  0  0  0  0
    1.0125   -0.9333    0.2413 C   0  0  1  0  0  0  0  0  0  0  0  0
    1.7069    0.1540   -0.6780 C   0  0  1  0  0  0  0  0  0  0  0  0
    1.8705   -0.2793   -2.1706 C   0  0  0  0  0  0  0  0  0  0  0  0
    0.8293    1.4424   -0.6569 C   0  0  0  0  0  0  0  0  0  0  0  0
   -0.6651    1.2010   -0.9419 C   0  0  0  0  0  0  0  0  0  0  0  0
   -1.3355    0.2183    0.0647 C   0  0  1  0  0  0  0  0  0  0  0  0
   -1.2609    0.9005    1.4836 C   0  0  0  0  0  0  0  0  0  0  0  0
   -2.8727    0.0070   -0.3107 C   0  0  2  0  0  0  0  0  0  0  0  0
   -3.7115    1.3262   -0.1606 C   0  0  0  0  0  0  0  0  0  0  0  0
   -5.2271    1.1776   -0.4708 C   0  0  0  0  0  0  0  0  0  0  0  0
   -5.4465    1.0548   -1.9967 C   0  0  0  0  0  0  0  0  0  0  0  0
   -5.9415    2.4688   -0.0060 C   0  0  0  0  0  0  0  0  0  0  0  0
   -5.8491   -0.0462    0.2771 C   0  0  0  0  0  0  0  0  0  0  0  0
   -4.8441   -0.7918    1.1710 C   0  0  0  0  0  0  0  0  0  0  0  0
   -3.5651   -1.2463    0.3995 C   0  0  1  0  0  0  0  0  0  0  0  0
   -4.0356   -2.3018   -0.6489 C   0  0  0  0  0  0  0  0  0  0  0  0
   -2.6443   -1.9789    1.4367 C   0  0  0  0  0  0  0  0  0  0  0  0
   -1.1245   -2.0854    1.1423 C   0  0  0  0  0  0  0  0  0  0  0  0
   -0.5491   -1.1743    0.0057 C   0  0  2  0  0  0  0  0  0  0  0  0
   -0.7256   -1.9421   -1.3587 C   0  0  0  0  0  0  0  0  0  0  0  0
    3.1288    0.4714   -0.0350 C   0  0  2  0  0  0  0  0  0  0  0  0
    3.8887    1.6739   -0.7117 C   0  0  0  0  0  0  0  0  0  0  0  0
    4.1108    2.8525    0.2482 C   0  0  0  0  0  0  0  0  0  0  0  0
    4.6952    4.0187   -0.4849 C   0  0  0  0  0  0  0  0  0  0  0  0
    3.9625    4.9948   -0.8051 O   0  0  0  0  0  0  0  0  0  0  0  0
    6.0398    4.0076   -0.8502 O   0  0  0  0  0  0  0  0  0  0  0  0
    6.4106   -2.2308    1.0318 H   0  0  0  0  0  0  0  0  0  0  0  0
    6.9509   -1.0741    2.2931 H   0  0  0  0  0  0  0  0  0  0  0  0
    5.4625   -2.0315    2.5560 H   0  0  0  0  0  0  0  0  0  0  0  0
    4.8544    0.2540    1.9944 H   0  0  0  0  0  0  0  0  0  0  0  0
    5.9543    0.2817    0.5915 H   0  0  0  0  0  0  0  0  0  0  0  0
    4.1231   -2.2961   -1.4392 H   0  0  0  0  0  0  0  0  0  0  0  0
    5.7146   -1.6751   -1.0021 H   0  0  0  0  0  0  0  0  0  0  0  0
    4.6207   -0.6597   -1.9439 H   0  0  0  0  0  0  0  0  0  0  0  0
    3.0724   -1.5998    2.0126 H   0  0  0  0  0  0  0  0  0  0  0  0
    3.8198   -2.8549    0.9853 H   0  0  0  0  0  0  0  0  0  0  0  0
    1.9988   -2.7222   -0.6401 H   0  0  0  0  0  0  0  0  0  0  0  0
    1.3840   -2.9580    1.0003 H   0  0  0  0  0  0  0  0  0  0  0  0
    1.0832   -0.5355    1.2692 H   0  0  0  0  0  0  0  0  0  0  0  0
    0.9178   -0.2489   -2.7275 H   0  0  0  0  0  0  0  0  0  0  0  0
    2.5439    0.3961   -2.7290 H   0  0  0  0  0  0  0  0  0  0  0  0
    2.2744   -1.2963   -2.2863 H   0  0  0  0  0  0  0  0  0  0  0  0
    0.9318    1.9561    0.3222 H   0  0  0  0  0  0  0  0  0  0  0  0
    1.1834    2.1704   -1.4144 H   0  0  0  0  0  0  0  0  0  0  0  0
   -1.1464    2.1969   -0.8900 H   0  0  0  0  0  0  0  0  0  0  0  0
   -0.8166    0.8620   -1.9849 H   0  0  0  0  0  0  0  0  0  0  0  0
   -2.0093    0.5068    2.1914 H   0  0  0  0  0  0  0  0  0  0  0  0
   -0.2851    0.8301    1.9849 H   0  0  0  0  0  0  0  0  0  0  0  0
   -1.4591    1.9907    1.4116 H   0  0  0  0  0  0  0  0  0  0  0  0
   -2.9038   -0.1778   -1.4000 H   0  0  0  0  0  0  0  0  0  0  0  0
   -3.3054    2.1189   -0.8212 H   0  0  0  0  0  0  0  0  0  0  0  0
   -3.6232    1.7066    0.8762 H   0  0  0  0  0  0  0  0  0  0  0  0
   -6.5305    0.9788   -2.2298 H   0  0  0  0  0  0  0  0  0  0  0  0
   -4.9473    0.1618   -2.4168 H   0  0  0  0  0  0  0  0  0  0  0  0
   -5.0414    1.9442   -2.5255 H   0  0  0  0  0  0  0  0  0  0  0  0
   -7.0272    2.4208   -0.2407 H   0  0  0  0  0  0  0  0  0  0  0  0
   -5.5153    3.3605   -0.5132 H   0  0  0  0  0  0  0  0  0  0  0  0
   -5.8319    2.6052    1.0917 H   0  0  0  0  0  0  0  0  0  0  0  0
   -6.3055   -0.7638   -0.4363 H   0  0  0  0  0  0  0  0  0  0  0  0
   -6.6948    0.2699    0.9284 H   0  0  0  0  0  0  0  0  0  0  0  0
   -4.5683   -0.1279    2.0187 H   0  0  0  0  0  0  0  0  0  0  0  0
   -5.3564   -1.6706    1.6212 H   0  0  0  0  0  0  0  0  0  0  0  0
   -4.5800   -1.8405   -1.4935 H   0  0  0  0  0  0  0  0  0  0  0  0
   -3.2118   -2.8769   -1.0812 H   0  0  0  0  0  0  0  0  0  0  0  0
   -4.7131   -3.0484   -0.1823 H   0  0  0  0  0  0  0  0  0  0  0  0
   -2.7540   -1.5084    2.4365 H   0  0  0  0  0  0  0  0  0  0  0  0
   -3.0352   -3.0059    1.6128 H   0  0  0  0  0  0  0  0  0  0  0  0
   -0.5962   -1.8610    2.0941 H   0  0  0  0  0  0  0  0  0  0  0  0
   -0.8862   -3.1527    0.9489 H   0  0  0  0  0  0  0  0  0  0  0  0
   -1.1376   -2.9592   -1.2308 H   0  0  0  0  0  0  0  0  0  0  0  0
   -1.3235   -1.4041   -2.1137 H   0  0  0  0  0  0  0  0  0  0  0  0
    0.2215   -2.1852   -1.8553 H   0  0  0  0  0  0  0  0  0  0  0  0
    2.8761    0.8203    0.9923 H   0  0  0  0  0  0  0  0  0  0  0  0
    3.3508    2.0568   -1.5973 H   0  0  0  0  0  0  0  0  0  0  0  0
    4.8806    1.3622   -1.0981 H   0  0  0  0  0  0  0  0  0  0  0  0
    4.8117    2.5529    1.0596 H   0  0  0  0  0  0  0  0  0  0  0  0
    3.1464    3.1559    0.7139 H   0  0  0  0  0  0  0  0  0  0  0  0
    6.4428    4.7816   -1.3655 H   0  0  0  0  0  0  0  0  0  0  0  0
  1  2  1  0
  3  2  1  1
  3  4  1  0
  3  5  1  0
  5  6  1  0
  6  7  1  0
  7  8  1  0
  8  9  1  6
  8 10  1  0
 10 11  1  0
 11 12  1  0
 12 13  1  1
 12 14  1  0
 14 15  1  0
 15 16  1  0
 16 17  1  0
 16 18  1  0
 16 19  1  0
 19 20  1  0
 20 21  1  0
 21 22  1  6
 21 23  1  0
 23 24  1  0
 24 25  1  0
 25 26  1  6
  8 27  1  0
 27 28  1  0
 28 29  1  0
 29 30  1  0
 30 31  2  0
 30 32  1  0
 27  3  1  0
 25  7  1  0
 25 12  1  0
 21 14  1  0
  1 33  1  0
  1 34  1  0
  1 35  1  0
  2 36  1  0
  2 37  1  0
  4 38  1  0
  4 39  1  0
  4 40  1  0
  5 41  1  0
  5 42  1  0
  6 43  1  0
  6 44  1  0
  7 45  1  1
  9 46  1  0
  9 47  1  0
  9 48  1  0
 10 49  1  0
 10 50  1  0
 11 51  1  0
 11 52  1  0
 13 53  1  0
 13 54  1  0
 13 55  1  0
 14 56  1  6
 15 57  1  0
 15 58  1  0
 17 59  1  0
 17 60  1  0
 17 61  1  0
 18 62  1  0
 18 63  1  0
 18 64  1  0
 19 65  1  0
 19 66  1  0
 20 67  1  0
 20 68  1  0
 22 69  1  0
 22 70  1  0
 22 71  1  0
 23 72  1  0
 23 73  1  0
 24 74  1  0
 24 75  1  0
 26 76  1  0
 26 77  1  0
 26 78  1  0
 27 79  1  1
 28 80  1  0
 28 81  1  0
 29 82  1  0
 29 83  1  0
 32 84  1  0
M  END

     RDKit          3D

 40 41  0  0  0  0  0  0  0  0999 V2000
    4.5654   -0.8347    1.5648 C   0  0  0  0  0  0  0  0  0  0  0  0
    4.2241   -0.6959    0.2706 C   0  0  0  0  0  0  0  0  0  0  0  0
    5.2918   -0.4217   -0.7633 C   0  0  0  0  0  0  0  0  0  0  0  0
    2.7608   -0.7826   -0.1352 C   0  0  2  0  0  0  0  0  0  0  0  0
    2.6205   -1.3585   -1.4105 O   0  0  0  0  0  0  0  0  0  0  0  0
    2.0890    0.6050   -0.0540 C   0  0  0  0  0  0  0  0  0  0  0  0
    0.5881    0.5132   -0.2570 C   0  0  0  0  0  0  0  0  0  0  0  0
   -0.2743    0.3286    0.8416 C   0  0  0  0  0  0  0  0  0  0  0  0
    0.2558    0.2618    2.1359 O   0  0  0  0  0  0  0  0  0  0  0  0
    0.3261   -0.9577    2.8695 C   0  0  0  0  0  0  0  0  0  0  0  0
   -1.6674    0.2535    0.6336 C   0  0  0  0  0  0  0  0  0  0  0  0
   -2.5648    0.1431    1.7115 C   0  0  0  0  0  0  0  0  0  0  0  0
   -3.9364    0.0587    1.4799 C   0  0  0  0  0  0  0  0  0  0  0  0
   -4.4366    0.0988    0.1800 C   0  0  0  0  0  0  0  0  0  0  0  0
   -3.5637    0.2318   -0.9164 C   0  0  0  0  0  0  0  0  0  0  0  0
   -4.0414    0.2826   -2.2366 O   0  0  0  0  0  0  0  0  0  0  0  0
   -5.4151    0.2353   -2.6029 C   0  0  0  0  0  0  0  0  0  0  0  0
   -2.1729    0.3177   -0.6881 C   0  0  0  0  0  0  0  0  0  0  0  0
   -1.3090    0.4732   -1.7338 N   0  0  0  0  0  0  0  0  0  0  0  0
    0.0348    0.5823   -1.5504 C   0  0  0  0  0  0  0  0  0  0  0  0
    0.7801    0.7555   -2.5532 O   0  0  0  0  0  0  0  0  0  0  0  0
    3.8120   -1.0069    2.3300 H   0  0  0  0  0  0  0  0  0  0  0  0
    5.6009   -0.7711    1.8857 H   0  0  0  0  0  0  0  0  0  0  0  0
    6.2794   -0.2261   -0.2907 H   0  0  0  0  0  0  0  0  0  0  0  0
    5.3938   -1.3026   -1.4360 H   0  0  0  0  0  0  0  0  0  0  0  0
    5.0177    0.4715   -1.3683 H   0  0  0  0  0  0  0  0  0  0  0  0
    2.2411   -1.4608    0.5723 H   0  0  0  0  0  0  0  0  0  0  0  0
    2.9492   -0.7037   -2.0801 H   0  0  0  0  0  0  0  0  0  0  0  0
    2.5405    1.2883   -0.8057 H   0  0  0  0  0  0  0  0  0  0  0  0
    2.3037    1.0666    0.9340 H   0  0  0  0  0  0  0  0  0  0  0  0
    1.3384   -1.4031    2.7559 H   0  0  0  0  0  0  0  0  0  0  0  0
    0.1467   -0.7418    3.9459 H   0  0  0  0  0  0  0  0  0  0  0  0
   -0.4390   -1.6849    2.5149 H   0  0  0  0  0  0  0  0  0  0  0  0
   -2.2178    0.1367    2.7367 H   0  0  0  0  0  0  0  0  0  0  0  0
   -4.6192   -0.0235    2.3149 H   0  0  0  0  0  0  0  0  0  0  0  0
   -5.5075    0.0381    0.0415 H   0  0  0  0  0  0  0  0  0  0  0  0
   -5.8691   -0.7212   -2.2670 H   0  0  0  0  0  0  0  0  0  0  0  0
   -5.4956    0.3067   -3.7070 H   0  0  0  0  0  0  0  0  0  0  0  0
   -5.9556    1.0924   -2.1509 H   0  0  0  0  0  0  0  0  0  0  0  0
   -1.6746    0.5298   -2.7125 H   0  0  0  0  0  0  0  0  0  0  0  0
  1  2  2  3
  2  3  1  0
  2  4  1  0
  4  5  1  0
  4  6  1  0
  6  7  1  0
  7  8  2  0
  8  9  1  0
  9 10  1  0
  8 11  1  0
 11 12  2  0
 12 13  1  0
 13 14  2  0
 14 15  1  0
 15 16  1  0
 16 17  1  0
 15 18  2  0
 18 19  1  0
 19 20  1  0
 20 21  2  0
 20  7  1  0
 18 11  1  0
  1 22  1  0
  1 23  1  0
  3 24  1  0
  3 25  1  0
  3 26  1  0
  4 27  1  1
  5 28  1  0
  6 29  1  0
  6 30  1  0
 10 31  1  0
 10 32  1  0
 10 33  1  0
 12 34  1  0
 13 35  1  0
 14 36  1  0
 17 37  1  0
 17 38  1  0
 17 39  1  0
 19 40  1  0
M  END

     RDKit          3D

 44 47  0  0  0  0  0  0  0  0999 V2000
    5.4437    1.8637    1.0110 C   0  0  0  0  0  0  0  0  0  0  0  0
    5.1930    0.6942    0.2384 O   0  0  0  0  0  0  0  0  0  0  0  0
    3.9185    0.1530   -0.0026 C   0  0  0  0  0  0  0  0  0  0  0  0
    2.7500    0.7454    0.5110 C   0  0  0  0  0  0  0  0  0  0  0  0
    1.4868    0.1782    0.2695 C   0  0  0  0  0  0  0  0  0  0  0  0
    1.3883   -0.9965   -0.4994 C   0  0  0  0  0  0  0  0  0  0  0  0
    2.5548   -1.5823   -1.0190 C   0  0  0  0  0  0  0  0  0  0  0  0
    3.8144   -1.0139   -0.7791 C   0  0  0  0  0  0  0  0  0  0  0  0
    5.0522   -1.6689   -1.3269 C   0  0  0  0  0  0  0  0  0  0  0  0
    0.0646   -1.5997   -0.7791 C   0  0  0  0  0  0  0  0  0  0  0  0
   -0.0484   -2.5022   -1.6513 O   0  0  0  0  0  0  0  0  0  0  0  0
   -1.1675   -1.1700   -0.0384 C   0  0  2  0  0  0  0  0  0  0  0  0
   -1.7708    0.1452   -0.5583 C   0  0  1  0  0  0  0  0  0  0  0  0
   -3.3148    0.3038   -0.5341 C   0  0  0  0  0  0  0  0  0  0  0  0
   -3.6542    1.8074   -0.4477 C   0  0  0  0  0  0  0  0  0  0  0  0
   -3.8557   -0.2294   -1.8763 C   0  0  0  0  0  0  0  0  0  0  0  0
   -4.0161   -0.4653    0.6256 C   0  0  0  0  0  0  0  0  0  0  0  0
   -3.3092   -0.4319    1.9990 C   0  0  0  0  0  0  0  0  0  0  0  0
   -1.9453    0.2750    2.0424 C   0  0  0  0  0  0  0  0  0  0  0  0
   -1.0600    0.1154    0.7919 C   0  0  1  0  0  0  0  0  0  0  0  0
    0.2666    0.8279    0.7989 C   0  0  0  0  0  0  0  0  0  0  0  0
    0.3231    2.0042    1.2498 O   0  0  0  0  0  0  0  0  0  0  0  0
    6.5362    2.0532    1.0372 H   0  0  0  0  0  0  0  0  0  0  0  0
    5.0841    1.7188    2.0517 H   0  0  0  0  0  0  0  0  0  0  0  0
    4.9424    2.7406    0.5500 H   0  0  0  0  0  0  0  0  0  0  0  0
    2.8194    1.6459    1.1055 H   0  0  0  0  0  0  0  0  0  0  0  0
    2.4851   -2.4881   -1.6093 H   0  0  0  0  0  0  0  0  0  0  0  0
    5.6571   -0.9249   -1.8873 H   0  0  0  0  0  0  0  0  0  0  0  0
    4.8037   -2.5009   -2.0197 H   0  0  0  0  0  0  0  0  0  0  0  0
    5.6584   -2.0748   -0.4899 H   0  0  0  0  0  0  0  0  0  0  0  0
   -1.8556   -1.9593    0.3221 H   0  0  0  0  0  0  0  0  0  0  0  0
   -1.2067    0.6436   -1.3800 H   0  0  0  0  0  0  0  0  0  0  0  0
   -3.1739    2.3667   -1.2796 H   0  0  0  0  0  0  0  0  0  0  0  0
   -4.7519    1.9676   -0.5145 H   0  0  0  0  0  0  0  0  0  0  0  0
   -3.3036    2.2491    0.5050 H   0  0  0  0  0  0  0  0  0  0  0  0
   -3.4234    0.3361   -2.7305 H   0  0  0  0  0  0  0  0  0  0  0  0
   -4.9627   -0.1349   -1.9200 H   0  0  0  0  0  0  0  0  0  0  0  0
   -3.5905   -1.3012   -2.0068 H   0  0  0  0  0  0  0  0  0  0  0  0
   -4.1356   -1.5338    0.3381 H   0  0  0  0  0  0  0  0  0  0  0  0
   -5.0567   -0.0901    0.7462 H   0  0  0  0  0  0  0  0  0  0  0  0
   -3.9781    0.0577    2.7400 H   0  0  0  0  0  0  0  0  0  0  0  0
   -3.1718   -1.4769    2.3544 H   0  0  0  0  0  0  0  0  0  0  0  0
   -1.3799   -0.1052    2.9204 H   0  0  0  0  0  0  0  0  0  0  0  0
   -2.1098    1.3574    2.2250 H   0  0  0  0  0  0  0  0  0  0  0  0
  1  2  1  0
  2  3  1  0
  3  4  2  0
  4  5  1  0
  5  6  2  0
  6  7  1  0
  7  8  2  0
  8  9  1  0
  6 10  1  0
 10 11  2  0
 10 12  1  0
 12 13  1  0
 13 14  1  0
 14 15  1  0
 14 16  1  0
 14 17  1  0
 17 18  1  0
 18 19  1  0
 20 19  1  1
 20 21  1  0
 21 22  2  0
  8  3  1  0
 20 12  1  0
 21  5  1  0
 20 13  1  0
  1 23  1  0
  1 24  1  0
  1 25  1  0
  4 26  1  0
  7 27  1  0
  9 28  1  0
  9 29  1  0
  9 30  1  0
 12 31  1  1
 13 32  1  6
 15 33  1  0
 15 34  1  0
 15 35  1  0
 16 36  1  0
 16 37  1  0
 16 38  1  0
 17 39  1  0
 17 40  1  0
 18 41  1  0
 18 42  1  0
 19 43  1  0
 19 44  1  0
M  END

     RDKit          3D

 81 85  0  0  0  0  0  0  0  0999 V2000
   -2.8119    1.2597    2.4750 C   0  0  0  0  0  0  0  0  0  0  0  0
   -3.6629    0.5643    1.3820 C   0  0  2  0  0  0  0  0  0  0  0  0
   -3.0994    0.8339   -0.0477 C   0  0  1  0  0  0  0  0  0  0  0  0
   -1.5761    0.5987   -0.2276 C   0  0  0  0  0  0  0  0  0  0  0  0
   -0.7997    1.6988   -0.3389 C   0  0  0  0  0  0  0  0  0  0  0  0
    0.5969    1.6482   -0.8168 C   0  0  0  0  0  0  0  0  0  0  0  0
    1.3251    0.4331   -0.1969 C   0  0  2  0  0  0  0  0  0  0  0  0
    2.9261    0.5207   -0.2882 C   0  0  1  0  0  0  0  0  0  0  0  0
    3.3696    0.9711   -1.7228 C   0  0  0  0  0  0  0  0  0  0  0  0
    3.4264    1.6386    0.7168 C   0  0  0  0  0  0  0  0  0  0  0  0
    3.7451    1.1381    2.1081 C   0  0  0  0  0  0  0  0  0  0  0  0
    4.9263    0.1326    2.1000 C   0  0  2  0  0  0  0  0  0  0  0  0
    6.1489    0.7935    2.3643 O   0  0  0  0  0  0  0  0  0  0  0  0
    5.0066   -0.7649    0.8061 C   0  0  0  0  0  0  0  0  0  0  0  0
    6.0515   -0.2233   -0.2115 C   0  0  0  0  0  0  0  0  0  0  0  0
    5.5593   -2.1637    1.2163 C   0  0  0  0  0  0  0  0  0  0  0  0
    3.5955   -0.8832    0.0784 C   0  0  1  0  0  0  0  0  0  0  0  0
    2.6087   -1.7848    0.8681 C   0  0  0  0  0  0  0  0  0  0  0  0
    1.3419   -2.1225    0.0568 C   0  0  0  0  0  0  0  0  0  0  0  0
    0.6452   -0.9035   -0.7040 C   0  0  2  0  0  0  0  0  0  0  0  0
    1.0035   -1.1309   -2.2137 C   0  0  0  0  0  0  0  0  0  0  0  0
   -1.0081   -0.8277   -0.4822 C   0  0  1  0  0  0  0  0  0  0  0  0
   -1.4182   -1.7042    0.6915 C   0  0  0  0  0  0  0  0  0  0  0  0
   -1.8059   -2.8949    0.4920 O   0  0  0  0  0  0  0  0  0  0  0  0
   -1.2261   -1.2723    2.0033 O   0  0  0  0  0  0  0  0  0  0  0  0
   -1.7970   -1.2975   -1.7474 C   0  0  0  0  0  0  0  0  0  0  0  0
   -3.3272   -1.2663   -1.5753 C   0  0  0  0  0  0  0  0  0  0  0  0
   -3.9326    0.1267   -1.1947 C   0  0  2  0  0  0  0  0  0  0  0  0
   -3.9490    1.0623   -2.4089 C   0  0  0  0  0  0  0  0  0  0  0  0
   -3.4117    0.7332   -3.5023 O   0  0  0  0  0  0  0  0  0  0  0  0
   -4.5732    2.3066   -2.3209 O   0  0  0  0  0  0  0  0  0  0  0  0
   -5.4041   -0.1217   -0.7496 C   0  0  0  0  0  0  0  0  0  0  0  0
   -5.9621    0.9375    0.1866 C   0  0  0  0  0  0  0  0  0  0  0  0
   -5.1449    1.0580    1.5033 C   0  0  1  0  0  0  0  0  0  0  0  0
   -5.8801    0.3567    2.6618 C   0  0  0  0  0  0  0  0  0  0  0  0
   -2.9212    2.3623    2.4306 H   0  0  0  0  0  0  0  0  0  0  0  0
   -3.1213    0.9112    3.4814 H   0  0  0  0  0  0  0  0  0  0  0  0
   -1.7323    1.0379    2.3830 H   0  0  0  0  0  0  0  0  0  0  0  0
   -3.6418   -0.5337    1.5576 H   0  0  0  0  0  0  0  0  0  0  0  0
   -3.2812    1.9267   -0.1626 H   0  0  0  0  0  0  0  0  0  0  0  0
   -1.2292    2.6805   -0.1745 H   0  0  0  0  0  0  0  0  0  0  0  0
    0.5576    1.6103   -1.9176 H   0  0  0  0  0  0  0  0  0  0  0  0
    1.0945    2.6061   -0.5748 H   0  0  0  0  0  0  0  0  0  0  0  0
    1.0888    0.4820    0.8887 H   0  0  0  0  0  0  0  0  0  0  0  0
    2.5694    0.9444   -2.4686 H   0  0  0  0  0  0  0  0  0  0  0  0
    3.7128    2.0344   -1.7596 H   0  0  0  0  0  0  0  0  0  0  0  0
    4.1849    0.3447   -2.1439 H   0  0  0  0  0  0  0  0  0  0  0  0
    2.6979    2.4686    0.8300 H   0  0  0  0  0  0  0  0  0  0  0  0
    4.3421    2.1562    0.3499 H   0  0  0  0  0  0  0  0  0  0  0  0
    2.8360    0.6907    2.5626 H   0  0  0  0  0  0  0  0  0  0  0  0
    4.0108    1.9874    2.7751 H   0  0  0  0  0  0  0  0  0  0  0  0
    4.7445   -0.5253    2.9755 H   0  0  0  0  0  0  0  0  0  0  0  0
    6.2243    1.5576    1.7362 H   0  0  0  0  0  0  0  0  0  0  0  0
    7.0675   -0.2029    0.2353 H   0  0  0  0  0  0  0  0  0  0  0  0
    6.1154   -0.8938   -1.1027 H   0  0  0  0  0  0  0  0  0  0  0  0
    5.8341    0.8039   -0.5624 H   0  0  0  0  0  0  0  0  0  0  0  0
    5.0089   -2.6051    2.0673 H   0  0  0  0  0  0  0  0  0  0  0  0
    5.5175   -2.8767    0.3609 H   0  0  0  0  0  0  0  0  0  0  0  0
    6.6113   -2.0846    1.5451 H   0  0  0  0  0  0  0  0  0  0  0  0
    3.7748   -1.4346   -0.8588 H   0  0  0  0  0  0  0  0  0  0  0  0
    3.0524   -2.7561    1.1389 H   0  0  0  0  0  0  0  0  0  0  0  0
    2.3169   -1.3186    1.8285 H   0  0  0  0  0  0  0  0  0  0  0  0
    0.7309   -2.6504    0.8003 H   0  0  0  0  0  0  0  0  0  0  0  0
    1.5946   -2.9439   -0.6483 H   0  0  0  0  0  0  0  0  0  0  0  0
    0.6471   -0.3196   -2.8806 H   0  0  0  0  0  0  0  0  0  0  0  0
    2.0905   -1.2411   -2.3648 H   0  0  0  0  0  0  0  0  0  0  0  0
    0.5850   -2.0839   -2.6040 H   0  0  0  0  0  0  0  0  0  0  0  0
   -1.4593   -1.8781    2.7825 H   0  0  0  0  0  0  0  0  0  0  0  0
   -1.5555   -0.6539   -2.6249 H   0  0  0  0  0  0  0  0  0  0  0  0
   -1.5165   -2.3373   -2.0188 H   0  0  0  0  0  0  0  0  0  0  0  0
   -3.6172   -2.0265   -0.8166 H   0  0  0  0  0  0  0  0  0  0  0  0
   -3.8006   -1.6178   -2.5176 H   0  0  0  0  0  0  0  0  0  0  0  0
   -4.6431    2.9137   -3.1360 H   0  0  0  0  0  0  0  0  0  0  0  0
   -5.5048   -1.0933   -0.2180 H   0  0  0  0  0  0  0  0  0  0  0  0
   -6.0717   -0.2033   -1.6414 H   0  0  0  0  0  0  0  0  0  0  0  0
   -5.9835    1.9264   -0.3267 H   0  0  0  0  0  0  0  0  0  0  0  0
   -7.0338    0.7079    0.4103 H   0  0  0  0  0  0  0  0  0  0  0  0
   -5.1464    2.1452    1.7633 H   0  0  0  0  0  0  0  0  0  0  0  0
   -5.9037   -0.7491    2.4996 H   0  0  0  0  0  0  0  0  0  0  0  0
   -5.3990    0.5684    3.6392 H   0  0  0  0  0  0  0  0  0  0  0  0
   -6.9349    0.7123    2.7370 H   0  0  0  0  0  0  0  0  0  0  0  0
  1  2  1  0
  2  3  1  0
  3  4  1  0
  4  5  2  0
  5  6  1  0
  6  7  1  0
  7  8  1  0
  8  9  1  6
  8 10  1  0
 10 11  1  0
 11 12  1  0
 12 13  1  0
 12 14  1  0
 14 15  1  0
 14 16  1  0
 14 17  1  0
 17 18  1  0
 18 19  1  0
 19 20  1  0
 20 21  1  6
 20 22  1  0
 22 23  1  1
 23 24  2  0
 23 25  1  0
 22 26  1  0
 26 27  1  0
 27 28  1  0
 28 29  1  6
 29 30  2  0
 29 31  1  0
 28 32  1  0
 32 33  1  0
 33 34  1  0
 34 35  1  0
 34  2  1  0
 28  3  1  0
 22  4  1  0
 20  7  1  0
 17  8  1  0
  1 36  1  0
  1 37  1  0
  1 38  1  0
  2 39  1  1
  3 40  1  6
  5 41  1  0
  6 42  1  0
  6 43  1  0
  7 44  1  1
  9 45  1  0
  9 46  1  0
  9 47  1  0
 10 48  1  0
 10 49  1  0
 11 50  1  0
 11 51  1  0
 12 52  1  1
 13 53  1  0
 15 54  1  0
 15 55  1  0
 15 56  1  0
 16 57  1  0
 16 58  1  0
 16 59  1  0
 17 60  1  6
 18 61  1  0
 18 62  1  0
 19 63  1  0
 19 64  1  0
 21 65  1  0
 21 66  1  0
 21 67  1  0
 25 68  1  0
 26 69  1  0
 26 70  1  0
 27 71  1  0
 27 72  1  0
 31 73  1  0
 32 74  1  0
 32 75  1  0
 33 76  1  0
 33 77  1  0
 34 78  1  1
 35 79  1  0
 35 80  1  0
 35 81  1  0
M  END

     RDKit          3D

 74 78  0  0  0  0  0  0  0  0999 V2000
    5.0976    4.1829    1.5415 C   0  0  0  0  0  0  0  0  0  0  0  0
    4.6193    2.9554    1.0026 O   0  0  0  0  0  0  0  0  0  0  0  0
    4.9390    1.7113    1.5603 C   0  0  0  0  0  0  0  0  0  0  0  0
    5.6811    1.6521    2.5809 O   0  0  0  0  0  0  0  0  0  0  0  0
    4.3863    0.4415    0.9212 C   0  0  1  0  0  0  0  0  0  0  0  0
    4.8559   -0.8025    1.7139 C   0  0  0  0  0  0  0  0  0  0  0  0
    2.8540    0.5434    0.8860 C   0  0  0  0  0  0  0  0  0  0  0  0
    2.0881   -0.6425    0.2001 C   0  0  2  0  0  0  0  0  0  0  0  0
    2.7403   -1.0814   -1.1861 C   0  0  2  0  0  0  0  0  0  0  0  0
    2.6856   -2.6466   -1.2716 C   0  0  0  0  0  0  0  0  0  0  0  0
    4.2902   -0.7665   -1.3558 C   0  0  0  0  0  0  0  0  0  0  0  0
    4.8253    0.3412   -0.5134 C   0  0  0  0  0  0  0  0  0  0  0  0
    5.6781    1.0884   -0.9749 O   0  0  0  0  0  0  0  0  0  0  0  0
    2.0067   -0.3950   -2.4047 C   0  0  0  0  0  0  0  0  0  0  0  0
    0.4750   -0.0397   -2.3039 C   0  0  2  0  0  0  0  0  0  0  0  0
    0.2160    1.3492   -2.2523 O   0  0  0  0  0  0  0  0  0  0  0  0
   -0.2771   -0.8060   -1.1634 C   0  0  2  0  0  0  0  0  0  0  0  0
   -0.3414   -2.3015   -1.6392 C   0  0  0  0  0  0  0  0  0  0  0  0
   -1.7791   -0.4434   -0.9717 C   0  0  0  0  0  0  0  0  0  0  0  0
   -2.4590    0.2070   -1.9376 C   0  0  0  0  0  0  0  0  0  0  0  0
   -3.8114    0.7321   -1.7348 C   0  0  0  0  0  0  0  0  0  0  0  0
   -4.4360    0.6566   -0.5511 C   0  0  0  0  0  0  0  0  0  0  0  0
   -3.8067   -0.1368    0.5458 C   0  0  0  0  0  0  0  0  0  0  0  0
   -4.4735   -0.2589    1.7123 C   0  0  0  0  0  0  0  0  0  0  0  0
   -5.7564    0.4151    1.9394 C   0  0  0  0  0  0  0  0  0  0  0  0
   -6.3366    0.2857    3.0515 O   0  0  0  0  0  0  0  0  0  0  0  0
   -6.3712    1.2206    0.8685 C   0  0  0  0  0  0  0  0  0  0  0  0
   -7.6014    1.8419    1.0965 O   0  0  0  0  0  0  0  0  0  0  0  0
   -5.7505    1.3488   -0.3222 C   0  0  0  0  0  0  0  0  0  0  0  0
   -6.3684    2.1961   -1.4154 C   0  0  0  0  0  0  0  0  0  0  0  0
   -2.5628   -1.0050    0.2539 C   0  0  1  0  0  0  0  0  0  0  0  0
   -3.1093   -2.4153   -0.0854 C   0  0  0  0  0  0  0  0  0  0  0  0
   -1.6609   -1.1002    1.5402 C   0  0  0  0  0  0  0  0  0  0  0  0
   -0.1506   -1.3433    1.3238 C   0  0  0  0  0  0  0  0  0  0  0  0
    0.4681   -0.4502    0.2108 C   0  0  1  0  0  0  0  0  0  0  0  0
    0.1065    1.0399    0.6350 C   0  0  0  0  0  0  0  0  0  0  0  0
    4.7575    4.2945    2.5929 H   0  0  0  0  0  0  0  0  0  0  0  0
    4.6971    5.0241    0.9412 H   0  0  0  0  0  0  0  0  0  0  0  0
    6.2080    4.2063    1.5010 H   0  0  0  0  0  0  0  0  0  0  0  0
    4.5161   -1.7512    1.2534 H   0  0  0  0  0  0  0  0  0  0  0  0
    5.9658   -0.8379    1.7534 H   0  0  0  0  0  0  0  0  0  0  0  0
    4.4654   -0.7702    2.7532 H   0  0  0  0  0  0  0  0  0  0  0  0
    2.6356    1.4791    0.3343 H   0  0  0  0  0  0  0  0  0  0  0  0
    2.4994    0.6516    1.9342 H   0  0  0  0  0  0  0  0  0  0  0  0
    2.2946   -1.4812    0.8992 H   0  0  0  0  0  0  0  0  0  0  0  0
    3.5283   -3.1309   -0.7341 H   0  0  0  0  0  0  0  0  0  0  0  0
    1.8361   -3.0875   -0.7310 H   0  0  0  0  0  0  0  0  0  0  0  0
    2.7204   -3.0115   -2.3204 H   0  0  0  0  0  0  0  0  0  0  0  0
    4.5352   -0.5658   -2.4229 H   0  0  0  0  0  0  0  0  0  0  0  0
    4.9474   -1.6275   -1.1149 H   0  0  0  0  0  0  0  0  0  0  0  0
    2.5655    0.5228   -2.6891 H   0  0  0  0  0  0  0  0  0  0  0  0
    2.1461   -1.0416   -3.3006 H   0  0  0  0  0  0  0  0  0  0  0  0
    0.0417   -0.3698   -3.2755 H   0  0  0  0  0  0  0  0  0  0  0  0
    1.0562    1.8676   -2.1752 H   0  0  0  0  0  0  0  0  0  0  0  0
    0.4246   -2.5668   -2.3896 H   0  0  0  0  0  0  0  0  0  0  0  0
   -1.2705   -2.4994   -2.2187 H   0  0  0  0  0  0  0  0  0  0  0  0
   -0.3164   -3.0464   -0.8313 H   0  0  0  0  0  0  0  0  0  0  0  0
   -2.0088    0.4481   -2.8872 H   0  0  0  0  0  0  0  0  0  0  0  0
   -4.2486    1.2656   -2.5664 H   0  0  0  0  0  0  0  0  0  0  0  0
   -4.1051   -0.8990    2.5016 H   0  0  0  0  0  0  0  0  0  0  0  0
   -8.1056    1.7357    1.9716 H   0  0  0  0  0  0  0  0  0  0  0  0
   -7.3027    2.7092   -1.1028 H   0  0  0  0  0  0  0  0  0  0  0  0
   -5.6506    2.9861   -1.7235 H   0  0  0  0  0  0  0  0  0  0  0  0
   -6.6124    1.5554   -2.2889 H   0  0  0  0  0  0  0  0  0  0  0  0
   -3.8879   -2.7295    0.6439 H   0  0  0  0  0  0  0  0  0  0  0  0
   -3.5705   -2.4305   -1.0967 H   0  0  0  0  0  0  0  0  0  0  0  0
   -2.3275   -3.1939   -0.0297 H   0  0  0  0  0  0  0  0  0  0  0  0
   -2.0335   -1.9065    2.2110 H   0  0  0  0  0  0  0  0  0  0  0  0
   -1.7632   -0.1684    2.1376 H   0  0  0  0  0  0  0  0  0  0  0  0
    0.3611   -1.1256    2.2882 H   0  0  0  0  0  0  0  0  0  0  0  0
    0.0414   -2.4185    1.1515 H   0  0  0  0  0  0  0  0  0  0  0  0
    0.3688    1.2319    1.6961 H   0  0  0  0  0  0  0  0  0  0  0  0
   -0.9676    1.2932    0.5661 H   0  0  0  0  0  0  0  0  0  0  0  0
    0.5978    1.8141    0.0297 H   0  0  0  0  0  0  0  0  0  0  0  0
  1  2  1  0
  2  3  1  0
  3  4  2  0
  3  5  1  0
  5  6  1  1
  5  7  1  0
  7  8  1  0
  8  9  1  0
  9 10  1  6
  9 11  1  0
 11 12  1  0
 12 13  2  0
  9 14  1  0
 14 15  1  0
 15 16  1  0
 15 17  1  0
 17 18  1  6
 17 19  1  0
 19 20  2  0
 20 21  1  0
 21 22  2  0
 22 23  1  0
 23 24  2  0
 24 25  1  0
 25 26  2  0
 25 27  1  0
 27 28  1  0
 27 29  2  0
 29 30  1  0
 23 31  1  0
 31 32  1  6
 31 33  1  0
 33 34  1  0
 34 35  1  0
 35 36  1  1
 12  5  1  0
 35 17  1  0
 35  8  1  0
 31 19  1  0
 29 22  1  0
  1 37  1  0
  1 38  1  0
  1 39  1  0
  6 40  1  0
  6 41  1  0
  6 42  1  0
  7 43  1  0
  7 44  1  0
  8 45  1  1
 10 46  1  0
 10 47  1  0
 10 48  1  0
 11 49  1  0
 11 50  1  0
 14 51  1  0
 14 52  1  0
 15 53  1  6
 16 54  1  0
 18 55  1  0
 18 56  1  0
 18 57  1  0
 20 58  1  0
 21 59  1  0
 24 60  1  0
 28 61  1  0
 30 62  1  0
 30 63  1  0
 30 64  1  0
 32 65  1  0
 32 66  1  0
 32 67  1  0
 33 68  1  0
 33 69  1  0
 34 70  1  0
 34 71  1  0
 36 72  1  0
 36 73  1  0
 36 74  1  0
M  END

     RDKit          3D

 36 38  0  0  0  0  0  0  0  0999 V2000
    3.3039   -2.8549    1.2247 C   0  0  0  0  0  0  0  0  0  0  0  0
    2.1659   -2.0780    0.8651 O   0  0  0  0  0  0  0  0  0  0  0  0
    2.2149   -0.7985    0.2835 C   0  0  0  0  0  0  0  0  0  0  0  0
    3.4479   -0.1834   -0.0073 C   0  0  0  0  0  0  0  0  0  0  0  0
    3.4966    1.0965   -0.5650 C   0  0  0  0  0  0  0  0  0  0  0  0
    4.8188    1.7249   -0.8965 C   0  0  0  0  0  0  0  0  0  0  0  0
    2.3070    1.7606   -0.8710 C   0  0  0  0  0  0  0  0  0  0  0  0
    1.0623    1.1706   -0.5944 C   0  0  0  0  0  0  0  0  0  0  0  0
    1.0064   -0.1161   -0.0138 C   0  0  0  0  0  0  0  0  0  0  0  0
   -0.3260   -0.7285    0.2645 C   0  0  0  0  0  0  0  0  0  0  0  0
   -0.3894   -1.9009    0.7250 O   0  0  0  0  0  0  0  0  0  0  0  0
   -1.5847    0.0254   -0.0089 C   0  0  0  0  0  0  0  0  0  0  0  0
   -2.8590   -0.5186    0.3022 C   0  0  0  0  0  0  0  0  0  0  0  0
   -2.9462   -1.7907    0.8942 O   0  0  0  0  0  0  0  0  0  0  0  0
   -4.1568   -2.4299    1.2816 C   0  0  0  0  0  0  0  0  0  0  0  0
   -4.0191    0.2261    0.0150 C   0  0  0  0  0  0  0  0  0  0  0  0
   -3.9276    1.4917   -0.5673 C   0  0  0  0  0  0  0  0  0  0  0  0
   -5.0760    2.2274   -0.8525 O   0  0  0  0  0  0  0  0  0  0  0  0
   -2.6791    2.0294   -0.8661 C   0  0  0  0  0  0  0  0  0  0  0  0
   -1.5040    1.3099   -0.5916 C   0  0  0  0  0  0  0  0  0  0  0  0
   -0.1855    1.9009   -0.9131 C   0  0  0  0  0  0  0  0  0  0  0  0
   -0.1244    3.0393   -1.4564 O   0  0  0  0  0  0  0  0  0  0  0  0
    3.9089   -2.3161    1.9841 H   0  0  0  0  0  0  0  0  0  0  0  0
    3.9172   -3.0763    0.3254 H   0  0  0  0  0  0  0  0  0  0  0  0
    2.9614   -3.8139    1.6622 H   0  0  0  0  0  0  0  0  0  0  0  0
    4.3786   -0.6947    0.1978 H   0  0  0  0  0  0  0  0  0  0  0  0
    5.6025    1.3906   -0.1828 H   0  0  0  0  0  0  0  0  0  0  0  0
    5.1181    1.4361   -1.9255 H   0  0  0  0  0  0  0  0  0  0  0  0
    4.7540    2.8320   -0.8362 H   0  0  0  0  0  0  0  0  0  0  0  0
    2.3560    2.7434   -1.3244 H   0  0  0  0  0  0  0  0  0  0  0  0
   -3.9169   -3.4159    1.7312 H   0  0  0  0  0  0  0  0  0  0  0  0
   -4.8053   -2.5916    0.3960 H   0  0  0  0  0  0  0  0  0  0  0  0
   -4.6861   -1.8160    2.0389 H   0  0  0  0  0  0  0  0  0  0  0  0
   -5.0011   -0.1678    0.2407 H   0  0  0  0  0  0  0  0  0  0  0  0
   -6.0008    1.8728   -0.6448 H   0  0  0  0  0  0  0  0  0  0  0  0
   -2.6321    3.0144   -1.3144 H   0  0  0  0  0  0  0  0  0  0  0  0
  1  2  1  0
  2  3  1  0
  3  4  2  0
  4  5  1  0
  5  6  1  0
  5  7  2  0
  7  8  1  0
  8  9  2  0
  9 10  1  0
 10 11  2  0
 10 12  1  0
 12 13  2  0
 13 14  1  0
 14 15  1  0
 13 16  1  0
 16 17  2  0
 17 18  1  0
 17 19  1  0
 19 20  2  0
 20 21  1  0
 21 22  2  0
  9  3  1  0
 20 12  1  0
 21  8  1  0
  1 23  1  0
  1 24  1  0
  1 25  1  0
  4 26  1  0
  6 27  1  0
  6 28  1  0
  6 29  1  0
  7 30  1  0
 15 31  1  0
 15 32  1  0
 15 33  1  0
 16 34  1  0
 18 35  1  0
 19 36  1  0
M  END

     RDKit          3D

 36 37  0  0  0  0  0  0  0  0999 V2000
   -0.0448    1.7087    2.5228 C   0  0  0  0  0  0  0  0  0  0  0  0
   -0.3419    0.7219    1.6676 C   0  0  0  0  0  0  0  0  0  0  0  0
   -0.5495    0.9493    0.1687 C   0  0  1  0  0  0  0  0  0  0  0  0
   -1.6154    2.0499   -0.0547 C   0  0  0  0  0  0  0  0  0  0  0  0
    0.7880    1.4101   -0.4619 C   0  0  0  0  0  0  0  0  0  0  0  0
    1.8401    0.3185   -0.4831 C   0  0  0  0  0  0  0  0  0  0  0  0
    1.5053   -0.9963   -0.5484 C   0  0  0  0  0  0  0  0  0  0  0  0
    0.0709   -1.4806   -0.4379 C   0  0  0  0  0  0  0  0  0  0  0  0
   -0.9745   -0.3537   -0.5855 C   0  0  1  0  0  0  0  0  0  0  0  0
   -2.4016   -0.8279   -0.2873 C   0  0  0  0  0  0  0  0  0  0  0  0
   -2.7354   -1.4438    0.8602 C   0  0  0  0  0  0  0  0  0  0  0  0
   -3.4890   -0.6135   -1.3123 C   0  0  0  0  0  0  0  0  0  0  0  0
    2.5799   -2.0205   -0.6245 C   0  0  0  0  0  0  0  0  0  0  0  0
    2.2935   -3.2453   -0.6792 O   0  0  0  0  0  0  0  0  0  0  0  0
    3.9928   -1.6133   -0.6373 C   0  0  0  0  0  0  0  0  0  0  0  0
    4.3197   -0.3227   -0.5972 C   0  0  0  0  0  0  0  0  0  0  0  0
    3.2731    0.7104   -0.5395 C   0  0  0  0  0  0  0  0  0  0  0  0
    3.6083    1.9269   -0.5383 O   0  0  0  0  0  0  0  0  0  0  0  0
    0.0344    2.7418    2.1972 H   0  0  0  0  0  0  0  0  0  0  0  0
    0.1337    1.4804    3.5692 H   0  0  0  0  0  0  0  0  0  0  0  0
   -0.3559   -0.2820    2.0750 H   0  0  0  0  0  0  0  0  0  0  0  0
   -1.8618    2.1453   -1.1337 H   0  0  0  0  0  0  0  0  0  0  0  0
   -1.2528    3.0405    0.2922 H   0  0  0  0  0  0  0  0  0  0  0  0
   -2.5497    1.8132    0.4968 H   0  0  0  0  0  0  0  0  0  0  0  0
    1.1734    2.2980    0.0830 H   0  0  0  0  0  0  0  0  0  0  0  0
    0.6187    1.7316   -1.5126 H   0  0  0  0  0  0  0  0  0  0  0  0
   -0.0345   -1.9955    0.5377 H   0  0  0  0  0  0  0  0  0  0  0  0
   -0.1182   -2.2410   -1.2272 H   0  0  0  0  0  0  0  0  0  0  0  0
   -0.9495   -0.0994   -1.6698 H   0  0  0  0  0  0  0  0  0  0  0  0
   -2.0132   -1.6632    1.6360 H   0  0  0  0  0  0  0  0  0  0  0  0
   -3.7578   -1.7683    1.0344 H   0  0  0  0  0  0  0  0  0  0  0  0
   -4.3004    0.0069   -0.8759 H   0  0  0  0  0  0  0  0  0  0  0  0
   -3.9066   -1.5949   -1.6259 H   0  0  0  0  0  0  0  0  0  0  0  0
   -3.1142   -0.0938   -2.2180 H   0  0  0  0  0  0  0  0  0  0  0  0
    4.7729   -2.3639   -0.6788 H   0  0  0  0  0  0  0  0  0  0  0  0
    5.3621   -0.0336   -0.6075 H   0  0  0  0  0  0  0  0  0  0  0  0
  1  2  2  3
  2  3  1  0
  3  4  1  1
  3  5  1  0
  5  6  1  0
  6  7  2  0
  7  8  1  0
  8  9  1  0
  9 10  1  0
 10 11  2  3
 10 12  1  0
  7 13  1  0
 13 14  2  0
 13 15  1  0
 15 16  2  0
 16 17  1  0
 17 18  2  0
  9  3  1  0
 17  6  1  0
  1 19  1  0
  1 20  1  0
  2 21  1  0
  4 22  1  0
  4 23  1  0
  4 24  1  0
  5 25  1  0
  5 26  1  0
  8 27  1  0
  8 28  1  0
  9 29  1  6
 11 30  1  0
 11 31  1  0
 12 32  1  0
 12 33  1  0
 12 34  1  0
 15 35  1  0
 16 36  1  0
M  END

     RDKit          3D

 47 50  0  0  0  0  0  0  0  0999 V2000
    3.1558    4.7978    0.4269 C   0  0  0  0  0  0  0  0  0  0  0  0
    3.4866    3.9050   -0.6514 O   0  0  0  0  0  0  0  0  0  0  0  0
    3.2027    2.5413   -0.7582 C   0  0  0  0  0  0  0  0  0  0  0  0
    3.3214    1.9941   -2.0355 C   0  0  0  0  0  0  0  0  0  0  0  0
    3.0626    0.6414   -2.2584 C   0  0  0  0  0  0  0  0  0  0  0  0
    2.6580   -0.1797   -1.2011 C   0  0  0  0  0  0  0  0  0  0  0  0
    2.4513   -1.6188   -1.4533 C   0  0  0  0  0  0  0  0  0  0  0  0
    1.2290   -2.1830   -1.5605 C   0  0  0  0  0  0  0  0  0  0  0  0
    0.9728   -3.4585   -2.1686 C   0  0  0  0  0  0  0  0  0  0  0  0
    1.8413   -4.3306   -2.4557 O   0  0  0  0  0  0  0  0  0  0  0  0
   -0.3599   -3.5639   -2.5252 O   0  0  0  0  0  0  0  0  0  0  0  0
   -1.0656   -2.3696   -2.1940 C   0  0  0  0  0  0  0  0  0  0  0  0
   -0.1171   -1.5515   -1.2739 C   0  0  1  0  0  0  0  0  0  0  0  0
   -0.5142   -1.7419    0.2043 C   0  0  0  0  0  0  0  0  0  0  0  0
   -1.8740   -1.1620    0.5182 C   0  0  0  0  0  0  0  0  0  0  0  0
   -2.0414    0.2368    0.6754 C   0  0  0  0  0  0  0  0  0  0  0  0
   -3.3091    0.7688    1.0269 C   0  0  0  0  0  0  0  0  0  0  0  0
   -4.3812   -0.1072    1.1241 C   0  0  0  0  0  0  0  0  0  0  0  0
   -4.2248   -1.4398    0.9506 C   0  0  0  0  0  0  0  0  0  0  0  0
   -2.9947   -2.0222    0.6830 C   0  0  0  0  0  0  0  0  0  0  0  0
   -5.4416   -2.0641    1.0661 O   0  0  0  0  0  0  0  0  0  0  0  0
   -6.4269   -1.0706    1.3717 C   0  0  0  0  0  0  0  0  0  0  0  0
   -5.7013    0.1624    1.3921 O   0  0  0  0  0  0  0  0  0  0  0  0
    2.5512    0.3526    0.0903 C   0  0  0  0  0  0  0  0  0  0  0  0
    2.8410    1.7015    0.3290 C   0  0  0  0  0  0  0  0  0  0  0  0
    2.8042    2.2217    1.6263 O   0  0  0  0  0  0  0  0  0  0  0  0
    2.2699    1.5404    2.7474 C   0  0  0  0  0  0  0  0  0  0  0  0
    2.9851    5.8367    0.0490 H   0  0  0  0  0  0  0  0  0  0  0  0
    3.9857    4.8189    1.1785 H   0  0  0  0  0  0  0  0  0  0  0  0
    2.2098    4.4928    0.9048 H   0  0  0  0  0  0  0  0  0  0  0  0
    3.6044    2.6293   -2.8770 H   0  0  0  0  0  0  0  0  0  0  0  0
    3.1757    0.2291   -3.2506 H   0  0  0  0  0  0  0  0  0  0  0  0
    3.3312   -2.1910   -1.7785 H   0  0  0  0  0  0  0  0  0  0  0  0
   -1.2416   -1.8036   -3.1252 H   0  0  0  0  0  0  0  0  0  0  0  0
   -2.0523   -2.6227   -1.7331 H   0  0  0  0  0  0  0  0  0  0  0  0
   -0.1143   -0.4713   -1.5563 H   0  0  0  0  0  0  0  0  0  0  0  0
   -0.4882   -2.8252    0.4520 H   0  0  0  0  0  0  0  0  0  0  0  0
    0.2348   -1.2644    0.8684 H   0  0  0  0  0  0  0  0  0  0  0  0
   -1.2026    0.9154    0.5489 H   0  0  0  0  0  0  0  0  0  0  0  0
   -3.4443    1.8368    1.1639 H   0  0  0  0  0  0  0  0  0  0  0  0
   -2.9169   -3.0930    0.5460 H   0  0  0  0  0  0  0  0  0  0  0  0
   -7.1899   -1.0331    0.5725 H   0  0  0  0  0  0  0  0  0  0  0  0
   -6.8998   -1.2639    2.3633 H   0  0  0  0  0  0  0  0  0  0  0  0
    2.2770   -0.2875    0.8925 H   0  0  0  0  0  0  0  0  0  0  0  0
    2.8376    0.6277    2.9643 H   0  0  0  0  0  0  0  0  0  0  0  0
    1.2088    1.2716    2.5226 H   0  0  0  0  0  0  0  0  0  0  0  0
    2.3036    2.1968    3.6392 H   0  0  0  0  0  0  0  0  0  0  0  0
  1  2  1  0
  2  3  1  0
  3  4  2  0
  4  5  1  0
  5  6  2  0
  6  7  1  0
  7  8  2  0
  8  9  1  0
  9 10  2  0
  9 11  1  0
 11 12  1  0
 12 13  1  0
 13 14  1  0
 14 15  1  0
 15 16  2  0
 16 17  1  0
 17 18  2  0
 18 19  1  0
 19 20  2  0
 19 21  1  0
 21 22  1  0
 22 23  1  0
  6 24  1  0
 24 25  2  0
 25 26  1  0
 26 27  1  0
 25  3  1  0
 13  8  1  0
 20 15  1  0
 23 18  1  0
  1 28  1  0
  1 29  1  0
  1 30  1  0
  4 31  1  0
  5 32  1  0
  7 33  1  0
 12 34  1  0
 12 35  1  0
 13 36  1  6
 14 37  1  0
 14 38  1  0
 16 39  1  0
 17 40  1  0
 20 41  1  0
 22 42  1  0
 22 43  1  0
 24 44  1  0
 27 45  1  0
 27 46  1  0
 27 47  1  0
M  END

     RDKit          3D

 33 37  0  0  0  0  0  0  0  0999 V2000
   -2.9354    4.5767    0.4199 O   0  0  0  0  0  0  0  0  0  0  0  0
   -1.9201    3.8492    0.2664 C   0  0  0  0  0  0  0  0  0  0  0  0
   -0.6490    4.3331   -0.0113 O   0  0  0  0  0  0  0  0  0  0  0  0
    0.1737    3.2170   -0.1391 C   0  0  0  0  0  0  0  0  0  0  0  0
    1.3458    3.2835   -0.5956 O   0  0  0  0  0  0  0  0  0  0  0  0
   -0.5893    1.9840    0.1327 C   0  0  0  0  0  0  0  0  0  0  0  0
   -1.8952    2.3954    0.3203 C   0  0  0  0  0  0  0  0  0  0  0  0
   -2.9545    1.4990    0.3944 C   0  0  0  0  0  0  0  0  0  0  0  0
   -2.6796    0.1314    0.2259 C   0  0  0  0  0  0  0  0  0  0  0  0
   -3.7256   -0.8007    0.1911 C   0  0  0  0  0  0  0  0  0  0  0  0
   -3.4580   -2.1505   -0.0458 C   0  0  0  0  0  0  0  0  0  0  0  0
   -2.1482   -2.5896   -0.2599 C   0  0  0  0  0  0  0  0  0  0  0  0
   -1.9216   -3.9420   -0.5142 O   0  0  0  0  0  0  0  0  0  0  0  0
   -1.0848   -1.6726   -0.2142 C   0  0  0  0  0  0  0  0  0  0  0  0
    0.2237   -2.1098   -0.4496 O   0  0  0  0  0  0  0  0  0  0  0  0
    1.3279   -1.2783   -0.2428 C   0  0  0  0  0  0  0  0  0  0  0  0
    2.6150   -1.8174   -0.3209 C   0  0  0  0  0  0  0  0  0  0  0  0
    3.7244   -1.0480    0.0493 C   0  0  0  0  0  0  0  0  0  0  0  0
    5.0083   -1.5852   -0.0279 O   0  0  0  0  0  0  0  0  0  0  0  0
    3.5342    0.2579    0.5299 C   0  0  0  0  0  0  0  0  0  0  0  0
    4.6114    1.0276    0.9705 O   0  0  0  0  0  0  0  0  0  0  0  0
    2.2445    0.7993    0.5844 C   0  0  0  0  0  0  0  0  0  0  0  0
    1.1394    0.0731    0.1055 C   0  0  0  0  0  0  0  0  0  0  0  0
   -0.2548    0.6110    0.0976 C   0  0  0  0  0  0  0  0  0  0  0  0
   -1.3356   -0.3111    0.0528 C   0  0  0  0  0  0  0  0  0  0  0  0
   -3.9693    1.8611    0.5069 H   0  0  0  0  0  0  0  0  0  0  0  0
   -4.7521   -0.4836    0.3298 H   0  0  0  0  0  0  0  0  0  0  0  0
   -4.2760   -2.8587   -0.0782 H   0  0  0  0  0  0  0  0  0  0  0  0
   -0.9916   -4.3117   -0.6698 H   0  0  0  0  0  0  0  0  0  0  0  0
    2.7470   -2.8478   -0.6271 H   0  0  0  0  0  0  0  0  0  0  0  0
    5.1681   -2.5328   -0.3528 H   0  0  0  0  0  0  0  0  0  0  0  0
    5.5629    0.6808    0.9561 H   0  0  0  0  0  0  0  0  0  0  0  0
    2.1144    1.7596    1.0562 H   0  0  0  0  0  0  0  0  0  0  0  0
  1  2  2  0
  2  3  1  0
  3  4  1  0
  4  5  2  0
  4  6  1  0
  6  7  2  0
  7  8  1  0
  8  9  2  0
  9 10  1  0
 10 11  2  0
 11 12  1  0
 12 13  1  0
 12 14  2  0
 14 15  1  0
 15 16  1  0
 16 17  2  0
 17 18  1  0
 18 19  1  0
 18 20  2  0
 20 21  1  0
 20 22  1  0
 22 23  2  0
 23 24  1  0
 24 25  2  0
  7  2  1  0
 25  9  1  0
 24  6  1  0
 25 14  1  0
 23 16  1  0
  8 26  1  0
 10 27  1  0
 11 28  1  0
 13 29  1  0
 17 30  1  0
 19 31  1  0
 21 32  1  0
 22 33  1  0
M  END

     RDKit          3D

 92 96  0  0  0  0  0  0  0  0999 V2000
    7.3078    0.6217    0.4670 C   0  0  0  0  0  0  0  0  0  0  0  0
    7.2031    1.8942    1.2643 C   0  0  0  0  0  0  0  0  0  0  0  0
    8.4539    2.6956    1.5129 C   0  0  0  0  0  0  0  0  0  0  0  0
    6.0460    2.3147    1.8091 C   0  0  0  0  0  0  0  0  0  0  0  0
    4.7364    1.6488    1.6840 C   0  0  0  0  0  0  0  0  0  0  0  0
    3.8644    1.9192    2.5577 O   0  0  0  0  0  0  0  0  0  0  0  0
    4.4197    0.8037    0.5996 O   0  0  0  0  0  0  0  0  0  0  0  0
    3.1635    0.1168    0.4905 C   0  0  2  0  0  0  0  0  0  0  0  0
    3.2154   -1.2413    1.2462 C   0  0  0  0  0  0  0  0  0  0  0  0
    3.3367   -2.5109    0.3495 C   0  0  0  0  0  0  0  0  0  0  0  0
    3.0478   -3.7441    1.2390 C   0  0  0  0  0  0  0  0  0  0  0  0
    4.7915   -2.6432   -0.1718 C   0  0  0  0  0  0  0  0  0  0  0  0
    2.2846   -2.4866   -0.8198 C   0  0  0  0  0  0  0  0  0  0  0  0
    1.5819   -1.1144   -1.0685 C   0  0  1  0  0  0  0  0  0  0  0  0
    0.2966   -0.8012   -0.2753 C   0  0  0  0  0  0  0  0  0  0  0  0
   -0.3772   -1.7850    0.3858 C   0  0  0  0  0  0  0  0  0  0  0  0
   -1.8877   -1.8542    0.5094 C   0  0  0  0  0  0  0  0  0  0  0  0
   -2.6041   -0.5150    0.2055 C   0  0  2  0  0  0  0  0  0  0  0  0
   -4.1839   -0.5196    0.2136 C   0  0  1  0  0  0  0  0  0  0  0  0
   -4.7738   -1.1604   -1.0682 C   0  0  0  0  0  0  0  0  0  0  0  0
   -4.7052   -1.3140    1.4360 C   0  0  0  0  0  0  0  0  0  0  0  0
   -6.2290   -1.2065    1.6406 C   0  0  0  0  0  0  0  0  0  0  0  0
   -6.8900    0.0899    1.2058 C   0  0  0  0  0  0  0  0  0  0  0  0
   -8.0883    0.1987    1.4302 O   0  0  0  0  0  0  0  0  0  0  0  0
   -6.1744    1.2280    0.4755 C   0  0  0  0  0  0  0  0  0  0  0  0
   -6.8155    1.3644   -0.9337 C   0  0  0  0  0  0  0  0  0  0  0  0
   -6.4466    2.5312    1.2638 C   0  0  0  0  0  0  0  0  0  0  0  0
   -4.6241    0.9714    0.4331 C   0  0  2  0  0  0  0  0  0  0  0  0
   -3.7694    2.0435   -0.3253 C   0  0  0  0  0  0  0  0  0  0  0  0
   -2.7639    1.5242   -1.3767 C   0  0  0  0  0  0  0  0  0  0  0  0
   -1.9144    0.2477   -1.0009 C   0  0  2  0  0  0  0  0  0  0  0  0
   -1.8608   -0.6491   -2.2989 C   0  0  0  0  0  0  0  0  0  0  0  0
   -0.3958    0.5578   -0.5475 C   0  0  1  0  0  0  0  0  0  0  0  0
   -0.3381    1.4022    0.7705 C   0  0  0  0  0  0  0  0  0  0  0  0
    0.4146    1.3657   -1.6273 C   0  0  0  0  0  0  0  0  0  0  0  0
    1.9341    1.4342   -1.3592 C   0  0  0  0  0  0  0  0  0  0  0  0
    2.6094    0.0627   -0.9901 C   0  0  1  0  0  0  0  0  0  0  0  0
    3.6796   -0.1753   -2.0575 C   0  0  0  0  0  0  0  0  0  0  0  0
    4.9065    0.0395   -1.8421 O   0  0  0  0  0  0  0  0  0  0  0  0
    3.2855   -0.5762   -3.3380 O   0  0  0  0  0  0  0  0  0  0  0  0
    6.8201   -0.2061    1.0159 H   0  0  0  0  0  0  0  0  0  0  0  0
    8.3649    0.3383    0.3008 H   0  0  0  0  0  0  0  0  0  0  0  0
    6.8381    0.7670   -0.5211 H   0  0  0  0  0  0  0  0  0  0  0  0
    8.7770    2.5531    2.5636 H   0  0  0  0  0  0  0  0  0  0  0  0
    9.2780    2.3879    0.8392 H   0  0  0  0  0  0  0  0  0  0  0  0
    8.2614    3.7766    1.3372 H   0  0  0  0  0  0  0  0  0  0  0  0
    6.0728    3.1926    2.4402 H   0  0  0  0  0  0  0  0  0  0  0  0
    2.4132    0.6866    1.0643 H   0  0  0  0  0  0  0  0  0  0  0  0
    2.2793   -1.3255    1.8496 H   0  0  0  0  0  0  0  0  0  0  0  0
    4.0437   -1.2306    1.9891 H   0  0  0  0  0  0  0  0  0  0  0  0
    3.1477   -4.6784    0.6462 H   0  0  0  0  0  0  0  0  0  0  0  0
    3.7684   -3.8004    2.0901 H   0  0  0  0  0  0  0  0  0  0  0  0
    2.0252   -3.7063    1.6653 H   0  0  0  0  0  0  0  0  0  0  0  0
    5.3169   -1.6670   -0.2120 H   0  0  0  0  0  0  0  0  0  0  0  0
    4.8473   -3.1051   -1.1889 H   0  0  0  0  0  0  0  0  0  0  0  0
    5.4172   -3.2955    0.4840 H   0  0  0  0  0  0  0  0  0  0  0  0
    2.7832   -2.7711   -1.7686 H   0  0  0  0  0  0  0  0  0  0  0  0
    1.5420   -3.3019   -0.7353 H   0  0  0  0  0  0  0  0  0  0  0  0
    1.2190   -1.1894   -2.1189 H   0  0  0  0  0  0  0  0  0  0  0  0
    0.1177   -2.6911    0.6758 H   0  0  0  0  0  0  0  0  0  0  0  0
   -2.2559   -2.6373   -0.1800 H   0  0  0  0  0  0  0  0  0  0  0  0
   -2.1247   -2.1795    1.5402 H   0  0  0  0  0  0  0  0  0  0  0  0
   -2.3976    0.0589    1.1200 H   0  0  0  0  0  0  0  0  0  0  0  0
   -4.2182   -2.0770   -1.3359 H   0  0  0  0  0  0  0  0  0  0  0  0
   -4.7882   -0.4480   -1.9135 H   0  0  0  0  0  0  0  0  0  0  0  0
   -5.8133   -1.4863   -0.9404 H   0  0  0  0  0  0  0  0  0  0  0  0
   -4.4601   -2.3894    1.3278 H   0  0  0  0  0  0  0  0  0  0  0  0
   -4.2045   -0.9529    2.3591 H   0  0  0  0  0  0  0  0  0  0  0  0
   -6.7271   -2.0356    1.0992 H   0  0  0  0  0  0  0  0  0  0  0  0
   -6.4522   -1.3681    2.7217 H   0  0  0  0  0  0  0  0  0  0  0  0
   -6.2642    2.0561   -1.6018 H   0  0  0  0  0  0  0  0  0  0  0  0
   -7.8542    1.7596   -0.8432 H   0  0  0  0  0  0  0  0  0  0  0  0
   -6.9178    0.3867   -1.4570 H   0  0  0  0  0  0  0  0  0  0  0  0
   -5.9551    3.4016    0.7777 H   0  0  0  0  0  0  0  0  0  0  0  0
   -6.0621    2.4437    2.3022 H   0  0  0  0  0  0  0  0  0  0  0  0
   -7.5369    2.7459    1.3173 H   0  0  0  0  0  0  0  0  0  0  0  0
   -4.3164    1.1636    1.4870 H   0  0  0  0  0  0  0  0  0  0  0  0
   -4.3989    2.7957   -0.8188 H   0  0  0  0  0  0  0  0  0  0  0  0
   -3.2033    2.6470    0.4162 H   0  0  0  0  0  0  0  0  0  0  0  0
   -2.1143    2.3630   -1.6734 H   0  0  0  0  0  0  0  0  0  0  0  0
   -3.3678    1.3266   -2.2892 H   0  0  0  0  0  0  0  0  0  0  0  0
   -2.8436   -0.9594   -2.6713 H   0  0  0  0  0  0  0  0  0  0  0  0
   -1.4376   -0.0987   -3.1622 H   0  0  0  0  0  0  0  0  0  0  0  0
   -1.2864   -1.5924   -2.1586 H   0  0  0  0  0  0  0  0  0  0  0  0
   -0.4497    0.7777    1.6791 H   0  0  0  0  0  0  0  0  0  0  0  0
    0.6164    1.9223    0.9183 H   0  0  0  0  0  0  0  0  0  0  0  0
   -1.0978    2.2017    0.7777 H   0  0  0  0  0  0  0  0  0  0  0  0
    0.0464    2.4084   -1.6893 H   0  0  0  0  0  0  0  0  0  0  0  0
    0.3002    0.9257   -2.6363 H   0  0  0  0  0  0  0  0  0  0  0  0
    2.3859    1.8728   -2.2792 H   0  0  0  0  0  0  0  0  0  0  0  0
    2.1579    2.2044   -0.5971 H   0  0  0  0  0  0  0  0  0  0  0  0
    3.9715   -0.7495   -4.0662 H   0  0  0  0  0  0  0  0  0  0  0  0
  1  2  1  0
  2  3  1  0
  2  4  2  3
  4  5  1  0
  5  6  2  0
  5  7  1  0
  7  8  1  0
  8  9  1  0
  9 10  1  0
 10 11  1  0
 10 12  1  0
 10 13  1  0
 13 14  1  0
 14 15  1  0
 15 16  2  0
 16 17  1  0
 17 18  1  0
 18 19  1  0
 19 20  1  6
 19 21  1  0
 21 22  1  0
 22 23  1  0
 23 24  2  0
 23 25  1  0
 25 26  1  0
 25 27  1  0
 25 28  1  0
 28 29  1  0
 29 30  1  0
 30 31  1  0
 31 32  1  6
 31 33  1  0
 33 34  1  1
 33 35  1  0
 35 36  1  0
 36 37  1  0
 37 38  1  6
 38 39  2  0
 38 40  1  0
 37  8  1  0
 37 14  1  0
 33 15  1  0
 31 18  1  0
 28 19  1  0
  1 41  1  0
  1 42  1  0
  1 43  1  0
  3 44  1  0
  3 45  1  0
  3 46  1  0
  4 47  1  0
  8 48  1  1
  9 49  1  0
  9 50  1  0
 11 51  1  0
 11 52  1  0
 11 53  1  0
 12 54  1  0
 12 55  1  0
 12 56  1  0
 13 57  1  0
 13 58  1  0
 14 59  1  6
 16 60  1  0
 17 61  1  0
 17 62  1  0
 18 63  1  1
 20 64  1  0
 20 65  1  0
 20 66  1  0
 21 67  1  0
 21 68  1  0
 22 69  1  0
 22 70  1  0
 26 71  1  0
 26 72  1  0
 26 73  1  0
 27 74  1  0
 27 75  1  0
 27 76  1  0
 28 77  1  1
 29 78  1  0
 29 79  1  0
 30 80  1  0
 30 81  1  0
 32 82  1  0
 32 83  1  0
 32 84  1  0
 34 85  1  0
 34 86  1  0
 34 87  1  0
 35 88  1  0
 35 89  1  0
 36 90  1  0
 36 91  1  0
 40 92  1  0
M  END

     RDKit          3D

 39 40  0  0  0  0  0  0  0  0999 V2000
    4.0313   -1.1352    0.8148 C   0  0  0  0  0  0  0  0  0  0  0  0
    3.1417   -0.2947    0.2651 C   0  0  0  0  0  0  0  0  0  0  0  0
    3.6103    1.0772   -0.1546 C   0  0  0  0  0  0  0  0  0  0  0  0
    1.6991   -0.7353    0.0553 C   0  0  2  0  0  0  0  0  0  0  0  0
    1.3573   -0.8038   -1.4442 C   0  0  0  0  0  0  0  0  0  0  0  0
   -0.1078   -1.2115   -1.6703 C   0  0  0  0  0  0  0  0  0  0  0  0
   -1.1129   -0.3028   -0.9088 C   0  0  1  0  0  0  0  0  0  0  0  0
   -1.1205    1.1171   -1.5442 C   0  0  0  0  0  0  0  0  0  0  0  0
   -2.5280   -0.9238   -1.0191 C   0  0  0  0  0  0  0  0  0  0  0  0
   -3.5858   -0.1383   -0.2227 C   0  0  0  0  0  0  0  0  0  0  0  0
   -3.0807    0.4496    1.0766 C   0  0  0  0  0  0  0  0  0  0  0  0
   -1.7733    0.4964    1.4206 C   0  0  0  0  0  0  0  0  0  0  0  0
   -1.3717    1.2200    2.6840 C   0  0  0  0  0  0  0  0  0  0  0  0
   -0.7411   -0.2780    0.6041 C   0  0  2  0  0  0  0  0  0  0  0  0
    0.7203    0.1756    0.8260 C   0  0  0  0  0  0  0  0  0  0  0  0
    5.0647   -0.8332    0.9628 H   0  0  0  0  0  0  0  0  0  0  0  0
    3.7450   -2.1347    1.1207 H   0  0  0  0  0  0  0  0  0  0  0  0
    3.9749    1.6364    0.7335 H   0  0  0  0  0  0  0  0  0  0  0  0
    4.4356    0.9823   -0.8916 H   0  0  0  0  0  0  0  0  0  0  0  0
    2.7954    1.6679   -0.6220 H   0  0  0  0  0  0  0  0  0  0  0  0
    1.5700   -1.7650    0.4624 H   0  0  0  0  0  0  0  0  0  0  0  0
    2.0132   -1.5581   -1.9316 H   0  0  0  0  0  0  0  0  0  0  0  0
    1.5598    0.1647   -1.9441 H   0  0  0  0  0  0  0  0  0  0  0  0
   -0.2255   -2.2665   -1.3370 H   0  0  0  0  0  0  0  0  0  0  0  0
   -0.3258   -1.1896   -2.7608 H   0  0  0  0  0  0  0  0  0  0  0  0
   -1.8060    1.8066   -1.0087 H   0  0  0  0  0  0  0  0  0  0  0  0
   -1.4540    1.0633   -2.6029 H   0  0  0  0  0  0  0  0  0  0  0  0
   -0.1182    1.5882   -1.5307 H   0  0  0  0  0  0  0  0  0  0  0  0
   -2.5087   -1.9664   -0.6316 H   0  0  0  0  0  0  0  0  0  0  0  0
   -2.8437   -0.9831   -2.0845 H   0  0  0  0  0  0  0  0  0  0  0  0
   -4.4468   -0.8060   -0.0037 H   0  0  0  0  0  0  0  0  0  0  0  0
   -3.9676    0.6931   -0.8542 H   0  0  0  0  0  0  0  0  0  0  0  0
   -3.8186    0.9551    1.6944 H   0  0  0  0  0  0  0  0  0  0  0  0
   -2.2409    1.6889    3.1941 H   0  0  0  0  0  0  0  0  0  0  0  0
   -0.9041    0.5025    3.3933 H   0  0  0  0  0  0  0  0  0  0  0  0
   -0.6459    2.0265    2.4418 H   0  0  0  0  0  0  0  0  0  0  0  0
   -0.7986   -1.3242    0.9827 H   0  0  0  0  0  0  0  0  0  0  0  0
    0.8380    1.2371    0.5288 H   0  0  0  0  0  0  0  0  0  0  0  0
    0.9699    0.1018    1.9064 H   0  0  0  0  0  0  0  0  0  0  0  0
  1  2  2  3
  2  3  1  0
  2  4  1  0
  4  5  1  0
  5  6  1  0
  6  7  1  0
  7  8  1  6
  7  9  1  0
  9 10  1  0
 10 11  1  0
 11 12  2  0
 12 13  1  0
 12 14  1  0
 14 15  1  0
 15  4  1  0
 14  7  1  0
  1 16  1  0
  1 17  1  0
  3 18  1  0
  3 19  1  0
  3 20  1  0
  4 21  1  1
  5 22  1  0
  5 23  1  0
  6 24  1  0
  6 25  1  0
  8 26  1  0
  8 27  1  0
  8 28  1  0
  9 29  1  0
  9 30  1  0
 10 31  1  0
 10 32  1  0
 11 33  1  0
 13 34  1  0
 13 35  1  0
 13 36  1  0
 14 37  1  1
 15 38  1  0
 15 39  1  0
M  END

     RDKit          3D

 83 87  0  0  0  0  0  0  0  0999 V2000
   -6.5058   -0.7774    2.0202 C   0  0  0  0  0  0  0  0  0  0  0  0
   -5.5901    0.2529    1.3296 C   0  0  2  0  0  0  0  0  0  0  0  0
   -6.0956    0.5490   -0.1085 C   0  0  0  0  0  0  0  0  0  0  0  0
   -5.3616   -0.3029   -1.1427 C   0  0  0  0  0  0  0  0  0  0  0  0
   -3.8375    0.0359   -1.2206 C   0  0  2  0  0  0  0  0  0  0  0  0
   -3.6429    1.1009   -2.3047 C   0  0  0  0  0  0  0  0  0  0  0  0
   -3.1095    2.2090   -2.0329 O   0  0  0  0  0  0  0  0  0  0  0  0
   -4.0212    0.8322   -3.6196 O   0  0  0  0  0  0  0  0  0  0  0  0
   -3.0921   -1.2485   -1.6636 C   0  0  0  0  0  0  0  0  0  0  0  0
   -1.5755   -1.0599   -1.7475 C   0  0  0  0  0  0  0  0  0  0  0  0
   -0.9007   -0.5510   -0.4243 C   0  0  2  0  0  0  0  0  0  0  0  0
   -0.8548   -1.7569    0.5794 C   0  0  0  0  0  0  0  0  0  0  0  0
   -1.7591    0.5290    0.2691 C   0  0  0  0  0  0  0  0  0  0  0  0
   -1.1610    1.4762    1.0403 C   0  0  0  0  0  0  0  0  0  0  0  0
    0.3288    1.6770    1.2079 C   0  0  0  0  0  0  0  0  0  0  0  0
    1.1919    0.5370    0.5959 C   0  0  2  0  0  0  0  0  0  0  0  0
    2.7746    0.7636    0.6878 C   0  0  1  0  0  0  0  0  0  0  0  0
    3.2297    2.1383    0.0844 C   0  0  0  0  0  0  0  0  0  0  0  0
    3.1964    0.7613    2.2092 C   0  0  0  0  0  0  0  0  0  0  0  0
    4.3994   -0.1421    2.5468 C   0  0  0  0  0  0  0  0  0  0  0  0
    5.5322   -0.0259    1.5183 C   0  0  2  0  0  0  0  0  0  0  0  0
    6.0437    1.2921    1.5552 O   0  0  0  0  0  0  0  0  0  0  0  0
    5.0741   -0.4736    0.0651 C   0  0  1  0  0  0  0  0  0  0  0  0
    5.7834    0.3777   -1.0378 C   0  0  0  0  0  0  0  0  0  0  0  0
    5.5253   -1.9660   -0.1362 C   0  0  0  0  0  0  0  0  0  0  0  0
    6.9181   -2.1050    0.0035 O   0  0  0  0  0  0  0  0  0  0  0  0
    3.4866   -0.4224   -0.0606 C   0  0  2  0  0  0  0  0  0  0  0  0
    2.9451   -0.6101   -1.5004 C   0  0  0  0  0  0  0  0  0  0  0  0
    1.4678   -1.0074   -1.4658 C   0  0  0  0  0  0  0  0  0  0  0  0
    0.5611    0.0561   -0.7628 C   0  0  1  0  0  0  0  0  0  0  0  0
    0.4353    1.2761   -1.7499 C   0  0  0  0  0  0  0  0  0  0  0  0
   -3.3008    0.5358    0.1781 C   0  0  2  0  0  0  0  0  0  0  0  0
   -4.0545   -0.1302    1.3985 C   0  0  1  0  0  0  0  0  0  0  0  0
   -3.4904    0.3595    2.7615 C   0  0  0  0  0  0  0  0  0  0  0  0
   -3.8985   -1.5321    1.3071 O   0  0  0  0  0  0  0  0  0  0  0  0
   -6.4830   -1.7448    1.4776 H   0  0  0  0  0  0  0  0  0  0  0  0
   -6.1810   -0.9361    3.0734 H   0  0  0  0  0  0  0  0  0  0  0  0
   -7.5549   -0.4097    2.0458 H   0  0  0  0  0  0  0  0  0  0  0  0
   -5.7347    1.2145    1.8846 H   0  0  0  0  0  0  0  0  0  0  0  0
   -5.9380    1.6233   -0.3579 H   0  0  0  0  0  0  0  0  0  0  0  0
   -7.1923    0.3724   -0.1923 H   0  0  0  0  0  0  0  0  0  0  0  0
   -5.8562   -0.1838   -2.1272 H   0  0  0  0  0  0  0  0  0  0  0  0
   -5.5220   -1.3697   -0.8579 H   0  0  0  0  0  0  0  0  0  0  0  0
   -3.8657    1.5100   -4.3541 H   0  0  0  0  0  0  0  0  0  0  0  0
   -3.4613   -1.5691   -2.6611 H   0  0  0  0  0  0  0  0  0  0  0  0
   -3.3231   -2.0989   -0.9898 H   0  0  0  0  0  0  0  0  0  0  0  0
   -1.3866   -0.3781   -2.5933 H   0  0  0  0  0  0  0  0  0  0  0  0
   -1.1236   -2.0340   -2.0359 H   0  0  0  0  0  0  0  0  0  0  0  0
   -0.0270   -2.4604    0.4070 H   0  0  0  0  0  0  0  0  0  0  0  0
   -0.7939   -1.4143    1.6383 H   0  0  0  0  0  0  0  0  0  0  0  0
   -1.7614   -2.3774    0.5283 H   0  0  0  0  0  0  0  0  0  0  0  0
   -1.7693    2.2213    1.5235 H   0  0  0  0  0  0  0  0  0  0  0  0
    0.5567    1.7953    2.2864 H   0  0  0  0  0  0  0  0  0  0  0  0
    0.5379    2.6431    0.7098 H   0  0  0  0  0  0  0  0  0  0  0  0
    1.0566   -0.3208    1.2923 H   0  0  0  0  0  0  0  0  0  0  0  0
    3.3459    2.1200   -1.0104 H   0  0  0  0  0  0  0  0  0  0  0  0
    2.5744    2.9810    0.3430 H   0  0  0  0  0  0  0  0  0  0  0  0
    4.2160    2.4434    0.4704 H   0  0  0  0  0  0  0  0  0  0  0  0
    3.4039    1.7910    2.5763 H   0  0  0  0  0  0  0  0  0  0  0  0
    2.3667    0.4075    2.8601 H   0  0  0  0  0  0  0  0  0  0  0  0
    4.0641   -1.2026    2.6074 H   0  0  0  0  0  0  0  0  0  0  0  0
    4.7840    0.1270    3.5544 H   0  0  0  0  0  0  0  0  0  0  0  0
    6.3399   -0.7064    1.8988 H   0  0  0  0  0  0  0  0  0  0  0  0
    7.0273    1.2387    1.4326 H   0  0  0  0  0  0  0  0  0  0  0  0
    6.8615    0.1017   -1.1207 H   0  0  0  0  0  0  0  0  0  0  0  0
    5.7523    1.4696   -0.8092 H   0  0  0  0  0  0  0  0  0  0  0  0
    5.3378    0.2256   -2.0469 H   0  0  0  0  0  0  0  0  0  0  0  0
    5.0389   -2.6168    0.6300 H   0  0  0  0  0  0  0  0  0  0  0  0
    5.2354   -2.3420   -1.1376 H   0  0  0  0  0  0  0  0  0  0  0  0
    7.1438   -3.0348   -0.2731 H   0  0  0  0  0  0  0  0  0  0  0  0
    3.1412   -1.3305    0.4896 H   0  0  0  0  0  0  0  0  0  0  0  0
    3.4789   -1.4276   -2.0151 H   0  0  0  0  0  0  0  0  0  0  0  0
    3.0765    0.2896   -2.1312 H   0  0  0  0  0  0  0  0  0  0  0  0
    1.4203   -1.9917   -0.9880 H   0  0  0  0  0  0  0  0  0  0  0  0
    1.1334   -1.1615   -2.5112 H   0  0  0  0  0  0  0  0  0  0  0  0
    0.3237    0.9485   -2.8044 H   0  0  0  0  0  0  0  0  0  0  0  0
    1.3267    1.9156   -1.7443 H   0  0  0  0  0  0  0  0  0  0  0  0
   -0.4227    1.9300   -1.5087 H   0  0  0  0  0  0  0  0  0  0  0  0
   -3.5960    1.6091    0.2495 H   0  0  0  0  0  0  0  0  0  0  0  0
   -2.4613   -0.0177    2.9208 H   0  0  0  0  0  0  0  0  0  0  0  0
   -3.4962    1.4663    2.8227 H   0  0  0  0  0  0  0  0  0  0  0  0
   -4.1000   -0.0220    3.6071 H   0  0  0  0  0  0  0  0  0  0  0  0
   -4.1355   -1.9421    2.1836 H   0  0  0  0  0  0  0  0  0  0  0  0
  1  2  1  0
  2  3  1  0
  3  4  1  0
  4  5  1  0
  5  6  1  6
  6  7  2  0
  6  8  1  0
  5  9  1  0
  9 10  1  0
 10 11  1  0
 11 12  1  1
 11 13  1  0
 13 14  2  0
 14 15  1  0
 15 16  1  0
 16 17  1  0
 17 18  1  6
 17 19  1  0
 19 20  1  0
 20 21  1  0
 21 22  1  0
 21 23  1  0
 23 24  1  6
 23 25  1  0
 25 26  1  0
 23 27  1  0
 27 28  1  0
 28 29  1  0
 29 30  1  0
 30 31  1  6
 13 32  1  0
 32 33  1  0
 33 34  1  0
 33 35  1  6
 33  2  1  0
 32  5  1  0
 30 11  1  0
 30 16  1  0
 27 17  1  0
  1 36  1  0
  1 37  1  0
  1 38  1  0
  2 39  1  1
  3 40  1  0
  3 41  1  0
  4 42  1  0
  4 43  1  0
  8 44  1  0
  9 45  1  0
  9 46  1  0
 10 47  1  0
 10 48  1  0
 12 49  1  0
 12 50  1  0
 12 51  1  0
 14 52  1  0
 15 53  1  0
 15 54  1  0
 16 55  1  1
 18 56  1  0
 18 57  1  0
 18 58  1  0
 19 59  1  0
 19 60  1  0
 20 61  1  0
 20 62  1  0
 21 63  1  1
 22 64  1  0
 24 65  1  0
 24 66  1  0
 24 67  1  0
 25 68  1  0
 25 69  1  0
 26 70  1  0
 27 71  1  1
 28 72  1  0
 28 73  1  0
 29 74  1  0
 29 75  1  0
 31 76  1  0
 31 77  1  0
 31 78  1  0
 32 79  1  6
 34 80  1  0
 34 81  1  0
 34 82  1  0
 35 83  1  0
M  END

     RDKit          3D

 39 41  0  0  0  0  0  0  0  0999 V2000
    4.9414   -0.6835    0.0328 C   0  0  0  0  0  0  0  0  0  0  0  0
    3.5508   -0.2220   -0.3168 C   0  0  0  0  0  0  0  0  0  0  0  0
    3.3110    1.2279   -0.6583 C   0  0  0  0  0  0  0  0  0  0  0  0
    2.5514   -1.1306   -0.3200 C   0  0  0  0  0  0  0  0  0  0  0  0
    1.1090   -0.8054   -0.6209 C   0  0  0  0  0  0  0  0  0  0  0  0
    0.3615   -0.3893    0.6566 C   0  0  0  0  0  0  0  0  0  0  0  0
   -0.9808    0.3842    0.4142 C   0  0  2  0  0  0  0  0  0  0  0  0
   -0.6420    1.8628    0.0750 C   0  0  0  0  0  0  0  0  0  0  0  0
   -1.9585    0.2443    1.6223 C   0  0  0  0  0  0  0  0  0  0  0  0
   -2.4432   -1.2173    1.5534 C   0  0  0  0  0  0  0  0  0  0  0  0
   -2.8604   -1.2154    0.0966 C   0  0  1  0  0  0  0  0  0  0  0  0
   -3.3611    0.1934   -0.1755 C   0  0  1  0  0  0  0  0  0  0  0  0
   -3.2310    0.9431    1.1407 C   0  0  0  0  0  0  0  0  0  0  0  0
   -1.9546   -0.2238   -0.6089 C   0  0  0  0  0  0  0  0  0  0  0  0
   -1.7433   -0.3115   -2.1231 C   0  0  0  0  0  0  0  0  0  0  0  0
    4.9657   -1.0317    1.0896 H   0  0  0  0  0  0  0  0  0  0  0  0
    5.6884    0.1307   -0.0842 H   0  0  0  0  0  0  0  0  0  0  0  0
    5.2408   -1.5232   -0.6317 H   0  0  0  0  0  0  0  0  0  0  0  0
    2.9308    1.3140   -1.6962 H   0  0  0  0  0  0  0  0  0  0  0  0
    4.2449    1.8220   -0.5896 H   0  0  0  0  0  0  0  0  0  0  0  0
    2.5774    1.6730    0.0446 H   0  0  0  0  0  0  0  0  0  0  0  0
    2.7818   -2.1647   -0.0760 H   0  0  0  0  0  0  0  0  0  0  0  0
    0.6386   -1.7291   -1.0135 H   0  0  0  0  0  0  0  0  0  0  0  0
    1.0403   -0.0389   -1.4160 H   0  0  0  0  0  0  0  0  0  0  0  0
    1.0220    0.2574    1.2767 H   0  0  0  0  0  0  0  0  0  0  0  0
    0.2342   -1.3008    1.2661 H   0  0  0  0  0  0  0  0  0  0  0  0
   -1.4869    2.3982   -0.4034 H   0  0  0  0  0  0  0  0  0  0  0  0
   -0.3494    2.4067    0.9980 H   0  0  0  0  0  0  0  0  0  0  0  0
    0.1974    1.9282   -0.6453 H   0  0  0  0  0  0  0  0  0  0  0  0
   -1.5745    0.5754    2.6100 H   0  0  0  0  0  0  0  0  0  0  0  0
   -3.3129   -1.4105    2.2221 H   0  0  0  0  0  0  0  0  0  0  0  0
   -1.6779   -1.9864    1.7645 H   0  0  0  0  0  0  0  0  0  0  0  0
   -3.3162   -2.0522   -0.4720 H   0  0  0  0  0  0  0  0  0  0  0  0
   -4.1957    0.2876   -0.9012 H   0  0  0  0  0  0  0  0  0  0  0  0
   -3.1221    2.0378    1.0105 H   0  0  0  0  0  0  0  0  0  0  0  0
   -4.1043    0.7566    1.8055 H   0  0  0  0  0  0  0  0  0  0  0  0
   -2.7094   -0.4240   -2.6608 H   0  0  0  0  0  0  0  0  0  0  0  0
   -1.2434    0.6086   -2.4886 H   0  0  0  0  0  0  0  0  0  0  0  0
   -1.1198   -1.1914   -2.3731 H   0  0  0  0  0  0  0  0  0  0  0  0
  1  2  1  0
  2  3  1  0
  2  4  2  3
  4  5  1  0
  5  6  1  0
  7  6  1  1
  7  8  1  0
  7  9  1  0
  9 10  1  0
 10 11  1  0
 11 12  1  0
 12 13  1  0
 12 14  1  0
 14 15  1  0
 14  7  1  0
 13  9  1  0
 14 11  1  0
  1 16  1  0
  1 17  1  0
  1 18  1  0
  3 19  1  0
  3 20  1  0
  3 21  1  0
  4 22  1  0
  5 23  1  0
  5 24  1  0
  6 25  1  0
  6 26  1  0
  8 27  1  0
  8 28  1  0
  8 29  1  0
  9 30  1  0
 10 31  1  0
 10 32  1  0
 11 33  1  6
 12 34  1  6
 13 35  1  0
 13 36  1  0
 15 37  1  0
 15 38  1  0
 15 39  1  0
M  END

     RDKit          3D

 68 72  0  0  0  0  0  0  0  0999 V2000
   -5.4940    2.6768   -1.2296 C   0  0  0  0  0  0  0  0  0  0  0  0
   -5.1256    1.5667   -0.2674 C   0  0  0  0  0  0  0  0  0  0  0  0
   -5.9295    1.2740    0.7830 C   0  0  0  0  0  0  0  0  0  0  0  0
   -7.1999    1.8350    0.9465 O   0  0  0  0  0  0  0  0  0  0  0  0
   -5.4820    0.3176    1.8086 C   0  0  0  0  0  0  0  0  0  0  0  0
   -6.2059    0.0785    2.8105 O   0  0  0  0  0  0  0  0  0  0  0  0
   -4.1971   -0.3730    1.6633 C   0  0  0  0  0  0  0  0  0  0  0  0
   -3.4074   -0.1808    0.5854 C   0  0  0  0  0  0  0  0  0  0  0  0
   -3.8478    0.7885   -0.4565 C   0  0  0  0  0  0  0  0  0  0  0  0
   -3.0892    0.9422   -1.5455 C   0  0  0  0  0  0  0  0  0  0  0  0
   -1.7655    0.3337   -1.6714 C   0  0  0  0  0  0  0  0  0  0  0  0
   -1.2859   -0.6007   -0.8241 C   0  0  0  0  0  0  0  0  0  0  0  0
    0.2011   -1.0485   -0.8877 C   0  0  1  0  0  0  0  0  0  0  0  0
    0.2282   -2.6222   -0.8667 C   0  0  0  0  0  0  0  0  0  0  0  0
    0.9896   -0.7161   -2.2327 C   0  0  0  0  0  0  0  0  0  0  0  0
    2.1422    0.2858   -2.1221 C   0  0  0  0  0  0  0  0  0  0  0  0
    3.1582   -0.0146   -0.9650 C   0  0  2  0  0  0  0  0  0  0  0  0
    4.1758   -1.0673   -1.4992 C   0  0  0  0  0  0  0  0  0  0  0  0
    2.4461   -0.6450    0.3185 C   0  0  1  0  0  0  0  0  0  0  0  0
    3.2956   -0.5330    1.6345 C   0  0  0  0  0  0  0  0  0  0  0  0
    3.9843    0.8194    1.8601 C   0  0  1  0  0  0  0  0  0  0  0  0
    4.8799    0.7708    3.1083 C   0  0  0  0  0  0  0  0  0  0  0  0
    4.7523    1.1645    0.6134 C   0  0  0  0  0  0  0  0  0  0  0  0
    5.9655    1.3330    0.6223 O   0  0  0  0  0  0  0  0  0  0  0  0
    3.9816    1.2962   -0.6593 C   0  0  2  0  0  0  0  0  0  0  0  0
    3.1599    2.4345   -0.5384 O   0  0  0  0  0  0  0  0  0  0  0  0
    0.8835   -0.4047    0.4046 C   0  0  1  0  0  0  0  0  0  0  0  0
    0.5853    1.1234    0.5743 C   0  0  0  0  0  0  0  0  0  0  0  0
    0.2443   -1.0798    1.6620 C   0  0  0  0  0  0  0  0  0  0  0  0
   -1.3071   -0.9939    1.7226 C   0  0  0  0  0  0  0  0  0  0  0  0
   -2.1489   -1.0642    0.3854 C   0  0  1  0  0  0  0  0  0  0  0  0
   -2.6825   -2.5097    0.1198 C   0  0  0  0  0  0  0  0  0  0  0  0
   -6.0125    2.2541   -2.1176 H   0  0  0  0  0  0  0  0  0  0  0  0
   -6.1314    3.4507   -0.7525 H   0  0  0  0  0  0  0  0  0  0  0  0
   -4.5900    3.2344   -1.5559 H   0  0  0  0  0  0  0  0  0  0  0  0
   -7.6991    2.3310    0.2210 H   0  0  0  0  0  0  0  0  0  0  0  0
   -3.9315   -1.1024    2.4219 H   0  0  0  0  0  0  0  0  0  0  0  0
   -3.3964    1.5837   -2.3593 H   0  0  0  0  0  0  0  0  0  0  0  0
   -1.1600    0.7881   -2.4386 H   0  0  0  0  0  0  0  0  0  0  0  0
   -0.3882   -3.0179   -1.7091 H   0  0  0  0  0  0  0  0  0  0  0  0
    1.2438   -3.0404   -1.0073 H   0  0  0  0  0  0  0  0  0  0  0  0
   -0.1332   -3.0950    0.0511 H   0  0  0  0  0  0  0  0  0  0  0  0
    1.4773   -1.6201   -2.6613 H   0  0  0  0  0  0  0  0  0  0  0  0
    0.3365   -0.4504   -3.0805 H   0  0  0  0  0  0  0  0  0  0  0  0
    2.6813    0.2976   -3.0953 H   0  0  0  0  0  0  0  0  0  0  0  0
    1.7060    1.2965   -2.0993 H   0  0  0  0  0  0  0  0  0  0  0  0
    3.6657   -2.0108   -1.7904 H   0  0  0  0  0  0  0  0  0  0  0  0
    4.7223   -0.6923   -2.3907 H   0  0  0  0  0  0  0  0  0  0  0  0
    4.9283   -1.3173   -0.7227 H   0  0  0  0  0  0  0  0  0  0  0  0
    2.4901   -1.7424    0.1770 H   0  0  0  0  0  0  0  0  0  0  0  0
    4.1057   -1.3044    1.5787 H   0  0  0  0  0  0  0  0  0  0  0  0
    2.7164   -0.8071    2.5368 H   0  0  0  0  0  0  0  0  0  0  0  0
    3.2220    1.6066    2.0303 H   0  0  0  0  0  0  0  0  0  0  0  0
    5.6774   -0.0005    3.0037 H   0  0  0  0  0  0  0  0  0  0  0  0
    4.2674    0.5293    4.0053 H   0  0  0  0  0  0  0  0  0  0  0  0
    5.3595    1.7634    3.2738 H   0  0  0  0  0  0  0  0  0  0  0  0
    4.7166    1.4633   -1.4912 H   0  0  0  0  0  0  0  0  0  0  0  0
    3.2928    2.9931   -1.3527 H   0  0  0  0  0  0  0  0  0  0  0  0
    1.0822    1.5209    1.4870 H   0  0  0  0  0  0  0  0  0  0  0  0
   -0.5004    1.3376    0.7096 H   0  0  0  0  0  0  0  0  0  0  0  0
    0.8788    1.7590   -0.2744 H   0  0  0  0  0  0  0  0  0  0  0  0
    0.6041   -0.5739    2.5817 H   0  0  0  0  0  0  0  0  0  0  0  0
    0.5859   -2.1282    1.7845 H   0  0  0  0  0  0  0  0  0  0  0  0
   -1.6629   -1.7663    2.4372 H   0  0  0  0  0  0  0  0  0  0  0  0
   -1.5330   -0.0265    2.2297 H   0  0  0  0  0  0  0  0  0  0  0  0
   -2.6340   -2.7755   -0.9573 H   0  0  0  0  0  0  0  0  0  0  0  0
   -2.1466   -3.2791    0.7048 H   0  0  0  0  0  0  0  0  0  0  0  0
   -3.7461   -2.6459    0.4064 H   0  0  0  0  0  0  0  0  0  0  0  0
  1  2  1  0
  2  3  2  0
  3  4  1  0
  3  5  1  0
  5  6  2  0
  5  7  1  0
  7  8  2  0
  8  9  1  0
  9 10  2  0
 10 11  1  0
 11 12  2  0
 12 13  1  0
 13 14  1  1
 13 15  1  0
 15 16  1  0
 16 17  1  0
 17 18  1  6
 17 19  1  0
 19 20  1  0
 20 21  1  0
 21 22  1  0
 21 23  1  0
 23 24  2  0
 23 25  1  0
 25 26  1  0
 19 27  1  0
 27 28  1  1
 27 29  1  0
 29 30  1  0
 30 31  1  0
 31 32  1  6
  9  2  1  0
 31 12  1  0
 31  8  1  0
 27 13  1  0
 25 17  1  0
  1 33  1  0
  1 34  1  0
  1 35  1  0
  4 36  1  0
  7 37  1  0
 10 38  1  0
 11 39  1  0
 14 40  1  0
 14 41  1  0
 14 42  1  0
 15 43  1  0
 15 44  1  0
 16 45  1  0
 16 46  1  0
 18 47  1  0
 18 48  1  0
 18 49  1  0
 19 50  1  6
 20 51  1  0
 20 52  1  0
 21 53  1  1
 22 54  1  0
 22 55  1  0
 22 56  1  0
 25 57  1  6
 26 58  1  0
 28 59  1  0
 28 60  1  0
 28 61  1  0
 29 62  1  0
 29 63  1  0
 30 64  1  0
 30 65  1  0
 32 66  1  0
 32 67  1  0
 32 68  1  0
M  END

     RDKit          3D

 81 85  0  0  0  0  0  0  0  0999 V2000
   -7.3612   -0.4631   -0.0526 C   0  0  0  0  0  0  0  0  0  0  0  0
   -6.1740    0.5145    0.0284 C   0  0  0  0  0  0  0  0  0  0  0  0
   -6.2055    1.2138    1.3989 C   0  0  0  0  0  0  0  0  0  0  0  0
   -4.8300   -0.2443   -0.2307 C   0  0  1  0  0  0  0  0  0  0  0  0
   -4.7317   -0.7936   -1.6828 C   0  0  0  0  0  0  0  0  0  0  0  0
   -3.2352   -0.9110   -2.0259 C   0  0  0  0  0  0  0  0  0  0  0  0
   -2.5407   -0.5706   -0.7139 C   0  0  1  0  0  0  0  0  0  0  0  0
   -0.9940   -0.3289   -0.6510 C   0  0  2  0  0  0  0  0  0  0  0  0
   -0.5923    0.9723   -1.4249 C   0  0  0  0  0  0  0  0  0  0  0  0
   -0.2232   -1.5036   -1.3418 C   0  0  0  0  0  0  0  0  0  0  0  0
    1.3190   -1.4251   -1.1771 C   0  0  0  0  0  0  0  0  0  0  0  0
    1.7763   -1.1821    0.2899 C   0  0  2  0  0  0  0  0  0  0  0  0
    0.9271   -0.0540    0.9262 C   0  0  0  0  0  0  0  0  0  0  0  0
    1.4853    1.1269    1.3170 C   0  0  0  0  0  0  0  0  0  0  0  0
    2.9516    1.4626    1.1789 C   0  0  0  0  0  0  0  0  0  0  0  0
    3.6427    0.5283    0.1648 C   0  0  1  0  0  0  0  0  0  0  0  0
    5.1494    0.8413   -0.1877 C   0  0  0  0  0  0  0  0  0  0  0  0
    5.2955    2.3440   -0.5601 C   0  0  0  0  0  0  0  0  0  0  0  0
    6.1083    0.6048    1.0067 C   0  0  0  0  0  0  0  0  0  0  0  0
    5.6052   -0.0745   -1.4035 C   0  0  2  0  0  0  0  0  0  0  0  0
    5.6896    0.6403   -2.6148 O   0  0  0  0  0  0  0  0  0  0  0  0
    4.7344   -1.3399   -1.6244 C   0  0  0  0  0  0  0  0  0  0  0  0
    4.2187   -1.9429   -0.3144 C   0  0  0  0  0  0  0  0  0  0  0  0
    3.3239   -0.9678    0.5189 C   0  0  2  0  0  0  0  0  0  0  0  0
    3.5805   -1.3039    2.0293 C   0  0  0  0  0  0  0  0  0  0  0  0
   -0.6004   -0.2644    0.8882 C   0  0  2  0  0  0  0  0  0  0  0  0
   -0.8738   -1.5873    1.6906 C   0  0  0  0  0  0  0  0  0  0  0  0
   -1.4614    0.8429    1.6005 C   0  0  0  0  0  0  0  0  0  0  0  0
   -3.0024    0.6577    1.4523 C   0  0  0  0  0  0  0  0  0  0  0  0
   -3.4585    0.4830   -0.0266 C   0  0  2  0  0  0  0  0  0  0  0  0
   -3.4883    1.8794   -0.7351 C   0  0  0  0  0  0  0  0  0  0  0  0
   -8.3205    0.0824    0.0769 H   0  0  0  0  0  0  0  0  0  0  0  0
   -7.3984   -0.9644   -1.0434 H   0  0  0  0  0  0  0  0  0  0  0  0
   -7.2828   -1.2419    0.7367 H   0  0  0  0  0  0  0  0  0  0  0  0
   -6.3418    1.2797   -0.7587 H   0  0  0  0  0  0  0  0  0  0  0  0
   -7.2395    1.5062    1.6715 H   0  0  0  0  0  0  0  0  0  0  0  0
   -5.8140    0.5438    2.1906 H   0  0  0  0  0  0  0  0  0  0  0  0
   -5.6143    2.1481    1.3743 H   0  0  0  0  0  0  0  0  0  0  0  0
   -4.8403   -1.1254    0.4555 H   0  0  0  0  0  0  0  0  0  0  0  0
   -5.2203   -0.1027   -2.4047 H   0  0  0  0  0  0  0  0  0  0  0  0
   -5.2229   -1.7898   -1.7547 H   0  0  0  0  0  0  0  0  0  0  0  0
   -2.9608   -0.2010   -2.8340 H   0  0  0  0  0  0  0  0  0  0  0  0
   -2.9846   -1.9418   -2.3600 H   0  0  0  0  0  0  0  0  0  0  0  0
   -2.6694   -1.5232   -0.1493 H   0  0  0  0  0  0  0  0  0  0  0  0
   -1.0034    0.9673   -2.4544 H   0  0  0  0  0  0  0  0  0  0  0  0
   -0.8915    1.8996   -0.9264 H   0  0  0  0  0  0  0  0  0  0  0  0
    0.5035    1.0929   -1.5148 H   0  0  0  0  0  0  0  0  0  0  0  0
   -0.5815   -2.4884   -0.9753 H   0  0  0  0  0  0  0  0  0  0  0  0
   -0.4480   -1.5045   -2.4301 H   0  0  0  0  0  0  0  0  0  0  0  0
    1.7192   -0.6460   -1.8507 H   0  0  0  0  0  0  0  0  0  0  0  0
    1.7321   -2.3878   -1.5428 H   0  0  0  0  0  0  0  0  0  0  0  0
    1.5452   -2.1326    0.8107 H   0  0  0  0  0  0  0  0  0  0  0  0
    0.8894    1.9033    1.7748 H   0  0  0  0  0  0  0  0  0  0  0  0
    3.4381    1.4096    2.1746 H   0  0  0  0  0  0  0  0  0  0  0  0
    3.0103    2.5143    0.8306 H   0  0  0  0  0  0  0  0  0  0  0  0
    3.1172    0.7488   -0.7931 H   0  0  0  0  0  0  0  0  0  0  0  0
    6.2985    2.5485   -0.9915 H   0  0  0  0  0  0  0  0  0  0  0  0
    5.1924    2.9944    0.3348 H   0  0  0  0  0  0  0  0  0  0  0  0
    4.5256    2.6549   -1.2973 H   0  0  0  0  0  0  0  0  0  0  0  0
    7.1073    1.0444    0.7942 H   0  0  0  0  0  0  0  0  0  0  0  0
    5.7285    1.0789    1.9356 H   0  0  0  0  0  0  0  0  0  0  0  0
    6.2916   -0.4726    1.1831 H   0  0  0  0  0  0  0  0  0  0  0  0
    6.6370   -0.4406   -1.2018 H   0  0  0  0  0  0  0  0  0  0  0  0
    4.7697    0.9151   -2.8661 H   0  0  0  0  0  0  0  0  0  0  0  0
    3.8769   -1.1098   -2.2852 H   0  0  0  0  0  0  0  0  0  0  0  0
    5.3415   -2.1040   -2.1555 H   0  0  0  0  0  0  0  0  0  0  0  0
    3.6797   -2.8896   -0.5221 H   0  0  0  0  0  0  0  0  0  0  0  0
    5.1160   -2.2484    0.2658 H   0  0  0  0  0  0  0  0  0  0  0  0
    2.8224   -0.8454    2.7001 H   0  0  0  0  0  0  0  0  0  0  0  0
    3.5176   -2.4029    2.1939 H   0  0  0  0  0  0  0  0  0  0  0  0
    4.5673   -0.9775    2.3960 H   0  0  0  0  0  0  0  0  0  0  0  0
   -1.9388   -1.7852    1.8961 H   0  0  0  0  0  0  0  0  0  0  0  0
   -0.3769   -1.5347    2.6825 H   0  0  0  0  0  0  0  0  0  0  0  0
   -0.5195   -2.5062    1.1951 H   0  0  0  0  0  0  0  0  0  0  0  0
   -1.2144    0.8605    2.6856 H   0  0  0  0  0  0  0  0  0  0  0  0
   -1.2102    1.8504    1.2245 H   0  0  0  0  0  0  0  0  0  0  0  0
   -3.3568   -0.1880    2.0728 H   0  0  0  0  0  0  0  0  0  0  0  0
   -3.4794    1.5557    1.8924 H   0  0  0  0  0  0  0  0  0  0  0  0
   -4.4554    2.3944   -0.6115 H   0  0  0  0  0  0  0  0  0  0  0  0
   -2.7740    2.5956   -0.2918 H   0  0  0  0  0  0  0  0  0  0  0  0
   -3.3024    1.8107   -1.8239 H   0  0  0  0  0  0  0  0  0  0  0  0
  1  2  1  0
  2  3  1  0
  2  4  1  0
  4  5  1  0
  5  6  1  0
  6  7  1  0
  7  8  1  0
  8  9  1  6
  8 10  1  0
 10 11  1  0
 11 12  1  0
 12 13  1  0
 13 14  2  0
 14 15  1  0
 15 16  1  0
 16 17  1  0
 17 18  1  0
 17 19  1  0
 17 20  1  0
 20 21  1  0
 20 22  1  0
 22 23  1  0
 23 24  1  0
 24 25  1  1
 13 26  1  0
 26 27  1  1
 26 28  1  0
 28 29  1  0
 29 30  1  0
 30 31  1  6
 30  4  1  0
 30  7  1  0
 26  8  1  0
 24 12  1  0
 24 16  1  0
  1 32  1  0
  1 33  1  0
  1 34  1  0
  2 35  1  0
  3 36  1  0
  3 37  1  0
  3 38  1  0
  4 39  1  1
  5 40  1  0
  5 41  1  0
  6 42  1  0
  6 43  1  0
  7 44  1  1
  9 45  1  0
  9 46  1  0
  9 47  1  0
 10 48  1  0
 10 49  1  0
 11 50  1  0
 11 51  1  0
 12 52  1  1
 14 53  1  0
 15 54  1  0
 15 55  1  0
 16 56  1  6
 18 57  1  0
 18 58  1  0
 18 59  1  0
 19 60  1  0
 19 61  1  0
 19 62  1  0
 20 63  1  1
 21 64  1  0
 22 65  1  0
 22 66  1  0
 23 67  1  0
 23 68  1  0
 25 69  1  0
 25 70  1  0
 25 71  1  0
 27 72  1  0
 27 73  1  0
 27 74  1  0
 28 75  1  0
 28 76  1  0
 29 77  1  0
 29 78  1  0
 31 79  1  0
 31 80  1  0
 31 81  1  0
M  END

     RDKit          3D

 57 58  0  0  0  0  0  0  0  0999 V2000
   -5.0840    0.2816   -0.1171 C   0  0  0  0  0  0  0  0  0  0  0  0
   -3.6901   -0.3205   -0.1493 C   0  0  0  0  0  0  0  0  0  0  0  0
   -3.6470   -1.6672   -0.1877 C   0  0  0  0  0  0  0  0  0  0  0  0
   -2.3834   -2.4502   -0.1918 C   0  0  0  0  0  0  0  0  0  0  0  0
   -1.2749   -1.6535    0.4736 C   0  0  0  0  0  0  0  0  0  0  0  0
   -1.0151   -0.2559   -0.1906 C   0  0  2  0  0  0  0  0  0  0  0  0
   -0.6562   -0.5153   -1.6931 C   0  0  0  0  0  0  0  0  0  0  0  0
    0.2450    0.4839    0.5866 C   0  0  1  0  0  0  0  0  0  0  0  0
    0.3982    0.0548    2.0882 C   0  0  0  0  0  0  0  0  0  0  0  0
    1.6635    0.2135   -0.0798 C   0  0  0  0  0  0  0  0  0  0  0  0
    2.2557   -1.2173    0.0051 C   0  0  0  0  0  0  0  0  0  0  0  0
    3.5475   -1.4603   -0.7705 C   0  0  0  0  0  0  0  0  0  0  0  0
    3.9626   -2.9028   -0.9222 C   0  0  0  0  0  0  0  0  0  0  0  0
    4.3339   -0.4477   -1.2118 C   0  0  0  0  0  0  0  0  0  0  0  0
    5.6153   -0.5858   -1.9402 C   0  0  0  0  0  0  0  0  0  0  0  0
    6.0826   -1.7093   -2.2693 O   0  0  0  0  0  0  0  0  0  0  0  0
    6.3162    0.5665   -2.2796 O   0  0  0  0  0  0  0  0  0  0  0  0
    0.0007    2.0461    0.5607 C   0  0  2  0  0  0  0  0  0  0  0  0
    1.1251    2.9493    1.1307 C   0  0  0  0  0  0  0  0  0  0  0  0
   -1.3295    2.4586    1.2375 C   0  0  0  0  0  0  0  0  0  0  0  0
   -2.4614    1.4269    1.1387 C   0  0  0  0  0  0  0  0  0  0  0  0
   -2.4173    0.5813   -0.1534 C   0  0  2  0  0  0  0  0  0  0  0  0
   -2.6158    1.5419   -1.3792 C   0  0  0  0  0  0  0  0  0  0  0  0
   -5.0878    1.3857   -0.1029 H   0  0  0  0  0  0  0  0  0  0  0  0
   -5.6525   -0.0422   -1.0160 H   0  0  0  0  0  0  0  0  0  0  0  0
   -5.6229   -0.0667    0.7910 H   0  0  0  0  0  0  0  0  0  0  0  0
   -4.5737   -2.2362   -0.2141 H   0  0  0  0  0  0  0  0  0  0  0  0
   -2.5436   -3.3885    0.3821 H   0  0  0  0  0  0  0  0  0  0  0  0
   -2.1176   -2.7453   -1.2262 H   0  0  0  0  0  0  0  0  0  0  0  0
   -1.5826   -1.5204    1.5317 H   0  0  0  0  0  0  0  0  0  0  0  0
   -0.3746   -2.2918    0.4787 H   0  0  0  0  0  0  0  0  0  0  0  0
   -1.5456   -0.8255   -2.2786 H   0  0  0  0  0  0  0  0  0  0  0  0
    0.0839   -1.3218   -1.8290 H   0  0  0  0  0  0  0  0  0  0  0  0
   -0.2620    0.3973   -2.1835 H   0  0  0  0  0  0  0  0  0  0  0  0
    0.5454   -1.0362    2.2066 H   0  0  0  0  0  0  0  0  0  0  0  0
    1.2972    0.5092    2.5495 H   0  0  0  0  0  0  0  0  0  0  0  0
   -0.4604    0.3414    2.7192 H   0  0  0  0  0  0  0  0  0  0  0  0
    1.6785    0.5679   -1.1286 H   0  0  0  0  0  0  0  0  0  0  0  0
    2.4138    0.8245    0.4549 H   0  0  0  0  0  0  0  0  0  0  0  0
    1.5310   -1.9506   -0.3707 H   0  0  0  0  0  0  0  0  0  0  0  0
    2.4606   -1.4706    1.0667 H   0  0  0  0  0  0  0  0  0  0  0  0
    3.2359   -3.5874   -0.4349 H   0  0  0  0  0  0  0  0  0  0  0  0
    4.9493   -3.0706   -0.4387 H   0  0  0  0  0  0  0  0  0  0  0  0
    4.0099   -3.1708   -1.9980 H   0  0  0  0  0  0  0  0  0  0  0  0
    4.0388    0.5765   -1.0425 H   0  0  0  0  0  0  0  0  0  0  0  0
    7.1988    0.5128   -2.7759 H   0  0  0  0  0  0  0  0  0  0  0  0
   -0.0380    2.3444   -0.5028 H   0  0  0  0  0  0  0  0  0  0  0  0
    2.0282    2.9379    0.4860 H   0  0  0  0  0  0  0  0  0  0  0  0
    1.3924    2.6814    2.1741 H   0  0  0  0  0  0  0  0  0  0  0  0
    0.7858    4.0078    1.1399 H   0  0  0  0  0  0  0  0  0  0  0  0
   -1.6729    3.4120    0.7756 H   0  0  0  0  0  0  0  0  0  0  0  0
   -1.1645    2.6728    2.3173 H   0  0  0  0  0  0  0  0  0  0  0  0
   -3.4150    1.9910    1.2247 H   0  0  0  0  0  0  0  0  0  0  0  0
   -2.4559    0.7531    2.0204 H   0  0  0  0  0  0  0  0  0  0  0  0
   -3.3625    2.3312   -1.1664 H   0  0  0  0  0  0  0  0  0  0  0  0
   -2.9806    0.9854   -2.2688 H   0  0  0  0  0  0  0  0  0  0  0  0
   -1.7080    2.0739   -1.6971 H   0  0  0  0  0  0  0  0  0  0  0  0
  1  2  1  0
  2  3  2  0
  3  4  1  0
  4  5  1  0
  5  6  1  0
  6  7  1  6
  6  8  1  0
  8  9  1  1
  8 10  1  0
 10 11  1  0
 11 12  1  0
 12 13  1  0
 12 14  2  0
 14 15  1  0
 15 16  2  0
 15 17  1  0
  8 18  1  0
 18 19  1  0
 18 20  1  0
 20 21  1  0
 21 22  1  0
 22 23  1  6
 22  2  1  0
 22  6  1  0
  1 24  1  0
  1 25  1  0
  1 26  1  0
  3 27  1  0
  4 28  1  0
  4 29  1  0
  5 30  1  0
  5 31  1  0
  7 32  1  0
  7 33  1  0
  7 34  1  0
  9 35  1  0
  9 36  1  0
  9 37  1  0
 10 38  1  0
 10 39  1  0
 11 40  1  0
 11 41  1  0
 13 42  1  0
 13 43  1  0
 13 44  1  0
 14 45  1  0
 17 46  1  0
 18 47  1  6
 19 48  1  0
 19 49  1  0
 19 50  1  0
 20 51  1  0
 20 52  1  0
 21 53  1  0
 21 54  1  0
 23 55  1  0
 23 56  1  0
 23 57  1  0
M  END

     RDKit          3D

 82 85  0  0  0  0  0  0  0  0999 V2000
   -6.7172    1.1460   -2.6933 C   0  0  0  0  0  0  0  0  0  0  0  0
   -5.7022    1.2302   -1.5216 C   0  0  0  0  0  0  0  0  0  0  0  0
   -6.2973    2.1818   -0.4477 C   0  0  0  0  0  0  0  0  0  0  0  0
   -4.4861    1.7580   -2.0003 O   0  0  0  0  0  0  0  0  0  0  0  0
   -5.4476   -0.2098   -0.9334 C   0  0  1  0  0  0  0  0  0  0  0  0
   -4.7279   -1.1478   -1.9453 C   0  0  0  0  0  0  0  0  0  0  0  0
   -4.4185   -2.3888   -1.3673 O   0  0  0  0  0  0  0  0  0  0  0  0
   -4.7752   -0.2543    0.4780 C   0  0  0  0  0  0  0  0  0  0  0  0
   -3.2666    0.1401    0.5734 C   0  0  1  0  0  0  0  0  0  0  0  0
   -3.1740    1.5422    0.4473 O   0  0  0  0  0  0  0  0  0  0  0  0
   -2.6151   -0.3139    1.9345 C   0  0  2  0  0  0  0  0  0  0  0  0
   -2.7132   -1.8620    2.0813 C   0  0  0  0  0  0  0  0  0  0  0  0
   -3.3867    0.2174    2.9951 O   0  0  0  0  0  0  0  0  0  0  0  0
   -1.1263    0.2338    2.1133 C   0  0  1  0  0  0  0  0  0  0  0  0
   -0.5627   -0.0521    3.5488 C   0  0  0  0  0  0  0  0  0  0  0  0
    0.9087   -0.4551    3.3824 C   0  0  0  0  0  0  0  0  0  0  0  0
    1.3072    0.1669    2.0408 C   0  0  1  0  0  0  0  0  0  0  0  0
    1.5494    1.5521    2.2524 O   0  0  0  0  0  0  0  0  0  0  0  0
    2.5502   -0.3164    1.3322 C   0  0  0  0  0  0  0  0  0  0  0  0
    3.4749   -1.0822    1.9480 C   0  0  0  0  0  0  0  0  0  0  0  0
    4.8086   -1.2720    1.3744 C   0  0  0  0  0  0  0  0  0  0  0  0
    5.5825   -2.1522    1.8492 O   0  0  0  0  0  0  0  0  0  0  0  0
    5.2484   -0.3463    0.2723 C   0  0  1  0  0  0  0  0  0  0  0  0
    6.5999   -0.7614   -0.3623 C   0  0  0  0  0  0  0  0  0  0  0  0
    6.9467    0.0247   -1.6537 C   0  0  1  0  0  0  0  0  0  0  0  0
    6.8247   -0.8257   -2.7728 O   0  0  0  0  0  0  0  0  0  0  0  0
    6.0560    1.2657   -1.8417 C   0  0  1  0  0  0  0  0  0  0  0  0
    6.3994    1.9399   -3.0300 O   0  0  0  0  0  0  0  0  0  0  0  0
    4.5574    0.8819   -1.8787 C   0  0  0  0  0  0  0  0  0  0  0  0
    4.1018   -0.1581   -0.7762 C   0  0  1  0  0  0  0  0  0  0  0  0
    3.7996   -1.5313   -1.4584 C   0  0  0  0  0  0  0  0  0  0  0  0
    2.8317    0.3960   -0.0032 C   0  0  1  0  0  0  0  0  0  0  0  0
    1.5358    0.5277   -0.8911 C   0  0  0  0  0  0  0  0  0  0  0  0
    0.2165    0.8143   -0.1151 C   0  0  0  0  0  0  0  0  0  0  0  0
    0.0652   -0.1006    1.1346 C   0  0  2  0  0  0  0  0  0  0  0  0
   -0.0048   -1.5942    0.6539 C   0  0  0  0  0  0  0  0  0  0  0  0
   -7.6657    0.6722   -2.3551 H   0  0  0  0  0  0  0  0  0  0  0  0
   -6.9588    2.1567   -3.0824 H   0  0  0  0  0  0  0  0  0  0  0  0
   -6.3082    0.5703   -3.5468 H   0  0  0  0  0  0  0  0  0  0  0  0
   -7.1087    1.6767    0.1214 H   0  0  0  0  0  0  0  0  0  0  0  0
   -6.7319    3.0894   -0.9120 H   0  0  0  0  0  0  0  0  0  0  0  0
   -5.5167    2.5207    0.2594 H   0  0  0  0  0  0  0  0  0  0  0  0
   -4.6661    2.6533   -2.3818 H   0  0  0  0  0  0  0  0  0  0  0  0
   -6.4537   -0.6615   -0.7682 H   0  0  0  0  0  0  0  0  0  0  0  0
   -3.7894   -0.6843   -2.3071 H   0  0  0  0  0  0  0  0  0  0  0  0
   -5.3658   -1.3227   -2.8404 H   0  0  0  0  0  0  0  0  0  0  0  0
   -5.2593   -2.9148   -1.3440 H   0  0  0  0  0  0  0  0  0  0  0  0
   -5.3649    0.3504    1.1910 H   0  0  0  0  0  0  0  0  0  0  0  0
   -4.9217   -1.2916    0.8381 H   0  0  0  0  0  0  0  0  0  0  0  0
   -2.7238   -0.3612   -0.2601 H   0  0  0  0  0  0  0  0  0  0  0  0
   -2.5432    1.7451   -0.2821 H   0  0  0  0  0  0  0  0  0  0  0  0
   -1.9710   -2.2904    2.7782 H   0  0  0  0  0  0  0  0  0  0  0  0
   -2.6147   -2.3852    1.1093 H   0  0  0  0  0  0  0  0  0  0  0  0
   -3.6993   -2.1500    2.5068 H   0  0  0  0  0  0  0  0  0  0  0  0
   -3.3929    1.2081    2.9281 H   0  0  0  0  0  0  0  0  0  0  0  0
   -1.2393    1.3408    2.0619 H   0  0  0  0  0  0  0  0  0  0  0  0
   -0.6265    0.8738    4.1651 H   0  0  0  0  0  0  0  0  0  0  0  0
   -1.1124   -0.8292    4.1182 H   0  0  0  0  0  0  0  0  0  0  0  0
    0.9827   -1.5651    3.3599 H   0  0  0  0  0  0  0  0  0  0  0  0
    1.5258   -0.0723    4.2222 H   0  0  0  0  0  0  0  0  0  0  0  0
    0.7656    1.9945    2.6662 H   0  0  0  0  0  0  0  0  0  0  0  0
    3.2706   -1.5503    2.9017 H   0  0  0  0  0  0  0  0  0  0  0  0
    5.4233    0.6326    0.7705 H   0  0  0  0  0  0  0  0  0  0  0  0
    7.4051   -0.5841    0.3917 H   0  0  0  0  0  0  0  0  0  0  0  0
    6.6108   -1.8546   -0.5756 H   0  0  0  0  0  0  0  0  0  0  0  0
    8.0093    0.3653   -1.5565 H   0  0  0  0  0  0  0  0  0  0  0  0
    7.5077   -0.5342   -3.4365 H   0  0  0  0  0  0  0  0  0  0  0  0
    6.2190    1.9571   -0.9775 H   0  0  0  0  0  0  0  0  0  0  0  0
    7.2464    2.4202   -2.8504 H   0  0  0  0  0  0  0  0  0  0  0  0
    4.3172    0.5015   -2.8963 H   0  0  0  0  0  0  0  0  0  0  0  0
    3.9937    1.8371   -1.7925 H   0  0  0  0  0  0  0  0  0  0  0  0
    3.3875   -2.2599   -0.7308 H   0  0  0  0  0  0  0  0  0  0  0  0
    4.7088   -1.9810   -1.9030 H   0  0  0  0  0  0  0  0  0  0  0  0
    3.0796   -1.4371   -2.2940 H   0  0  0  0  0  0  0  0  0  0  0  0
    3.0874    1.4369    0.2937 H   0  0  0  0  0  0  0  0  0  0  0  0
    1.6835    1.3444   -1.6259 H   0  0  0  0  0  0  0  0  0  0  0  0
    1.3589   -0.3842   -1.4852 H   0  0  0  0  0  0  0  0  0  0  0  0
    0.1893    1.8834    0.1737 H   0  0  0  0  0  0  0  0  0  0  0  0
   -0.6269    0.6501   -0.8153 H   0  0  0  0  0  0  0  0  0  0  0  0
    0.8993   -1.9310    0.1135 H   0  0  0  0  0  0  0  0  0  0  0  0
   -0.1232   -2.3000    1.4937 H   0  0  0  0  0  0  0  0  0  0  0  0
   -0.8311   -1.7305   -0.0700 H   0  0  0  0  0  0  0  0  0  0  0  0
  1  2  1  0
  2  3  1  0
  2  4  1  0
  2  5  1  0
  5  6  1  0
  6  7  1  0
  5  8  1  0
  8  9  1  0
  9 10  1  0
  9 11  1  0
 11 12  1  0
 11 13  1  1
 11 14  1  0
 14 15  1  0
 15 16  1  0
 16 17  1  0
 17 18  1  1
 17 19  1  0
 19 20  2  0
 20 21  1  0
 21 22  2  0
 21 23  1  0
 23 24  1  0
 24 25  1  0
 25 26  1  0
 25 27  1  0
 27 28  1  0
 27 29  1  0
 29 30  1  0
 30 31  1  6
 30 32  1  0
 32 33  1  0
 33 34  1  0
 34 35  1  0
 35 36  1  6
 35 14  1  0
 35 17  1  0
 32 19  1  0
 30 23  1  0
  1 37  1  0
  1 38  1  0
  1 39  1  0
  3 40  1  0
  3 41  1  0
  3 42  1  0
  4 43  1  0
  5 44  1  1
  6 45  1  0
  6 46  1  0
  7 47  1  0
  8 48  1  0
  8 49  1  0
  9 50  1  6
 10 51  1  0
 12 52  1  0
 12 53  1  0
 12 54  1  0
 13 55  1  0
 14 56  1  1
 15 57  1  0
 15 58  1  0
 16 59  1  0
 16 60  1  0
 18 61  1  0
 20 62  1  0
 23 63  1  1
 24 64  1  0
 24 65  1  0
 25 66  1  1
 26 67  1  0
 27 68  1  1
 28 69  1  0
 29 70  1  0
 29 71  1  0
 31 72  1  0
 31 73  1  0
 31 74  1  0
 32 75  1  1
 33 76  1  0
 33 77  1  0
 34 78  1  0
 34 79  1  0
 36 80  1  0
 36 81  1  0
 36 82  1  0
M  END

     RDKit          3D

 85 89  0  0  0  0  0  0  0  0999 V2000
    7.4140   -0.7977    0.3233 C   0  0  0  0  0  0  0  0  0  0  0  0
    6.8799    0.3642    1.1901 C   0  0  0  0  0  0  0  0  0  0  0  0
    6.7448    1.6301    0.3258 C   0  0  0  0  0  0  0  0  0  0  0  0
    7.8404    0.6526    2.1845 O   0  0  0  0  0  0  0  0  0  0  0  0
    5.5263    0.0424    1.9032 C   0  0  0  0  0  0  0  0  0  0  0  0
    4.4874   -0.8291    1.1625 C   0  0  0  0  0  0  0  0  0  0  0  0
    3.7369   -0.1206   -0.0010 C   0  0  1  0  0  0  0  0  0  0  0  0
    4.4480   -0.2667   -1.1943 O   0  0  0  0  0  0  0  0  0  0  0  0
    3.4782   -0.2835   -2.2111 C   0  0  0  0  0  0  0  0  0  0  0  0
    3.9086   -1.2862   -3.2838 C   0  0  0  0  0  0  0  0  0  0  0  0
    3.3460    1.1171   -2.8394 C   0  0  0  0  0  0  0  0  0  0  0  0
    2.2218   -0.6805   -1.6993 O   0  0  0  0  0  0  0  0  0  0  0  0
    2.3013   -0.6350   -0.2999 C   0  0  1  0  0  0  0  0  0  0  0  0
    2.0539   -2.0808    0.2105 C   0  0  0  0  0  0  0  0  0  0  0  0
    1.2423    0.4160    0.1938 C   0  0  2  0  0  0  0  0  0  0  0  0
    1.2749    0.7680    1.6985 C   0  0  0  0  0  0  0  0  0  0  0  0
   -0.1555    1.1708    2.0598 C   0  0  0  0  0  0  0  0  0  0  0  0
   -0.9880    0.2290    1.1912 C   0  0  1  0  0  0  0  0  0  0  0  0
   -0.8447   -1.0591    1.7657 O   0  0  0  0  0  0  0  0  0  0  0  0
   -2.4712    0.4916    0.9840 C   0  0  0  0  0  0  0  0  0  0  0  0
   -3.1480    1.3907    1.7294 C   0  0  0  0  0  0  0  0  0  0  0  0
   -4.6127    1.4510    1.6911 C   0  0  0  0  0  0  0  0  0  0  0  0
   -5.2161    2.4289    2.2163 O   0  0  0  0  0  0  0  0  0  0  0  0
   -5.3563    0.3107    1.0513 C   0  0  1  0  0  0  0  0  0  0  0  0
   -6.8739    0.5576    0.9250 C   0  0  0  0  0  0  0  0  0  0  0  0
   -7.5522   -0.6914    0.3444 C   0  0  1  0  0  0  0  0  0  0  0  0
   -8.9434   -0.5247    0.2810 O   0  0  0  0  0  0  0  0  0  0  0  0
   -6.9625   -1.0969   -1.0226 C   0  0  1  0  0  0  0  0  0  0  0  0
   -7.2798   -0.1435   -2.0094 O   0  0  0  0  0  0  0  0  0  0  0  0
   -5.4277   -1.2751   -0.9407 C   0  0  0  0  0  0  0  0  0  0  0  0
   -4.6680   -0.0712   -0.2970 C   0  0  1  0  0  0  0  0  0  0  0  0
   -4.6723    1.1386   -1.2898 C   0  0  0  0  0  0  0  0  0  0  0  0
   -3.1858   -0.4978    0.0471 C   0  0  1  0  0  0  0  0  0  0  0  0
   -2.3325   -0.8793   -1.2241 C   0  0  0  0  0  0  0  0  0  0  0  0
   -0.8001   -0.9438   -0.9967 C   0  0  0  0  0  0  0  0  0  0  0  0
   -0.2836    0.2867   -0.1873 C   0  0  2  0  0  0  0  0  0  0  0  0
   -0.6443    1.5834   -1.0035 C   0  0  0  0  0  0  0  0  0  0  0  0
    7.4469   -1.7352    0.9150 H   0  0  0  0  0  0  0  0  0  0  0  0
    6.7861   -0.9646   -0.5743 H   0  0  0  0  0  0  0  0  0  0  0  0
    8.4452   -0.5715   -0.0238 H   0  0  0  0  0  0  0  0  0  0  0  0
    6.4094    2.4872    0.9461 H   0  0  0  0  0  0  0  0  0  0  0  0
    7.7339    1.9055   -0.1077 H   0  0  0  0  0  0  0  0  0  0  0  0
    6.0375    1.4918   -0.5124 H   0  0  0  0  0  0  0  0  0  0  0  0
    8.0429   -0.1856    2.6766 H   0  0  0  0  0  0  0  0  0  0  0  0
    5.7615   -0.5212    2.8363 H   0  0  0  0  0  0  0  0  0  0  0  0
    5.0406    0.9837    2.2369 H   0  0  0  0  0  0  0  0  0  0  0  0
    4.9489   -1.7791    0.8144 H   0  0  0  0  0  0  0  0  0  0  0  0
    3.7389   -1.0979    1.9391 H   0  0  0  0  0  0  0  0  0  0  0  0
    3.7204    0.9724    0.2308 H   0  0  0  0  0  0  0  0  0  0  0  0
    3.1354   -1.3561   -4.0771 H   0  0  0  0  0  0  0  0  0  0  0  0
    4.8726   -0.9701   -3.7384 H   0  0  0  0  0  0  0  0  0  0  0  0
    4.0426   -2.2965   -2.8327 H   0  0  0  0  0  0  0  0  0  0  0  0
    3.0193    1.8574   -2.0847 H   0  0  0  0  0  0  0  0  0  0  0  0
    4.3199    1.4502   -3.2576 H   0  0  0  0  0  0  0  0  0  0  0  0
    2.5943    1.0993   -3.6541 H   0  0  0  0  0  0  0  0  0  0  0  0
    1.6802   -2.0995    1.2468 H   0  0  0  0  0  0  0  0  0  0  0  0
    1.3440   -2.6217   -0.4417 H   0  0  0  0  0  0  0  0  0  0  0  0
    2.9705   -2.7011    0.1406 H   0  0  0  0  0  0  0  0  0  0  0  0
    1.6093    1.3568   -0.2757 H   0  0  0  0  0  0  0  0  0  0  0  0
    1.5745   -0.1080    2.3105 H   0  0  0  0  0  0  0  0  0  0  0  0
    1.9876    1.5964    1.9256 H   0  0  0  0  0  0  0  0  0  0  0  0
   -0.3378    2.2377    1.7971 H   0  0  0  0  0  0  0  0  0  0  0  0
   -0.3586    1.0318    3.1444 H   0  0  0  0  0  0  0  0  0  0  0  0
   -1.4714   -1.1345    2.5319 H   0  0  0  0  0  0  0  0  0  0  0  0
   -2.6286    2.0734    2.3889 H   0  0  0  0  0  0  0  0  0  0  0  0
   -5.2470   -0.5502    1.7572 H   0  0  0  0  0  0  0  0  0  0  0  0
   -7.3003    0.7626    1.9327 H   0  0  0  0  0  0  0  0  0  0  0  0
   -7.0866    1.4475    0.3006 H   0  0  0  0  0  0  0  0  0  0  0  0
   -7.3680   -1.5327    1.0550 H   0  0  0  0  0  0  0  0  0  0  0  0
   -9.1308    0.2557   -0.3096 H   0  0  0  0  0  0  0  0  0  0  0  0
   -7.4020   -2.0913   -1.2880 H   0  0  0  0  0  0  0  0  0  0  0  0
   -7.5969   -0.6452   -2.8103 H   0  0  0  0  0  0  0  0  0  0  0  0
   -5.2275   -2.1919   -0.3389 H   0  0  0  0  0  0  0  0  0  0  0  0
   -5.0325   -1.4826   -1.9599 H   0  0  0  0  0  0  0  0  0  0  0  0
   -5.6720    1.6017   -1.3760 H   0  0  0  0  0  0  0  0  0  0  0  0
   -3.9822    1.9378   -0.9599 H   0  0  0  0  0  0  0  0  0  0  0  0
   -4.3944    0.8328   -2.3167 H   0  0  0  0  0  0  0  0  0  0  0  0
   -3.2553   -1.4352    0.6466 H   0  0  0  0  0  0  0  0  0  0  0  0
   -2.5063   -0.1881   -2.0677 H   0  0  0  0  0  0  0  0  0  0  0  0
   -2.6710   -1.8763   -1.5970 H   0  0  0  0  0  0  0  0  0  0  0  0
   -0.6180   -1.8990   -0.4647 H   0  0  0  0  0  0  0  0  0  0  0  0
   -0.2906   -1.0079   -1.9835 H   0  0  0  0  0  0  0  0  0  0  0  0
   -0.1247    1.5647   -1.9865 H   0  0  0  0  0  0  0  0  0  0  0  0
   -0.3257    2.5170   -0.4836 H   0  0  0  0  0  0  0  0  0  0  0  0
   -1.7204    1.7130   -1.2118 H   0  0  0  0  0  0  0  0  0  0  0  0
  1  2  1  0
  2  3  1  0
  2  4  1  0
  2  5  1  0
  5  6  1  0
  6  7  1  0
  7  8  1  0
  8  9  1  0
  9 10  1  0
  9 11  1  0
  9 12  1  0
 12 13  1  0
 13 14  1  1
 13 15  1  0
 15 16  1  0
 16 17  1  0
 17 18  1  0
 18 19  1  1
 18 20  1  0
 20 21  2  0
 21 22  1  0
 22 23  2  0
 22 24  1  0
 24 25  1  0
 25 26  1  0
 26 27  1  0
 26 28  1  0
 28 29  1  0
 28 30  1  0
 30 31  1  0
 31 32  1  6
 31 33  1  0
 33 34  1  0
 34 35  1  0
 35 36  1  0
 36 37  1  6
 13  7  1  0
 36 15  1  0
 36 18  1  0
 33 20  1  0
 31 24  1  0
  1 38  1  0
  1 39  1  0
  1 40  1  0
  3 41  1  0
  3 42  1  0
  3 43  1  0
  4 44  1  0
  5 45  1  0
  5 46  1  0
  6 47  1  0
  6 48  1  0
  7 49  1  1
 10 50  1  0
 10 51  1  0
 10 52  1  0
 11 53  1  0
 11 54  1  0
 11 55  1  0
 14 56  1  0
 14 57  1  0
 14 58  1  0
 15 59  1  6
 16 60  1  0
 16 61  1  0
 17 62  1  0
 17 63  1  0
 19 64  1  0
 21 65  1  0
 24 66  1  1
 25 67  1  0
 25 68  1  0
 26 69  1  1
 27 70  1  0
 28 71  1  6
 29 72  1  0
 30 73  1  0
 30 74  1  0
 32 75  1  0
 32 76  1  0
 32 77  1  0
 33 78  1  1
 34 79  1  0
 34 80  1  0
 35 81  1  0
 35 82  1  0
 37 83  1  0
 37 84  1  0
 37 85  1  0
M  END

     RDKit          3D

 74 80  0  0  0  0  0  0  0  0999 V2000
   -5.0473   -0.5427   -0.8310 C   0  0  0  0  0  0  0  0  0  0  0  0
   -3.9973   -1.5515   -0.2727 C   0  0  0  0  0  0  0  0  0  0  0  0
   -4.3477   -2.9004   -0.9655 C   0  0  0  0  0  0  0  0  0  0  0  0
   -4.2185   -1.6582    1.2276 C   0  0  0  0  0  0  0  0  0  0  0  0
   -5.3522   -1.9778    1.6759 O   0  0  0  0  0  0  0  0  0  0  0  0
   -3.1454   -1.3382    2.1882 C   0  0  0  0  0  0  0  0  0  0  0  0
   -1.8614   -1.3016    1.8225 C   0  0  0  0  0  0  0  0  0  0  0  0
   -1.4135   -1.6996    0.4180 C   0  0  1  0  0  0  0  0  0  0  0  0
   -1.4215   -3.2531    0.4114 C   0  0  0  0  0  0  0  0  0  0  0  0
   -2.4916   -1.1132   -0.5900 C   0  0  2  0  0  0  0  0  0  0  0  0
   -2.3642    0.4410   -0.6688 C   0  0  0  0  0  0  0  0  0  0  0  0
   -0.9404    1.0402   -0.6205 C   0  0  1  0  0  0  0  0  0  0  0  0
   -0.7013    1.6279    0.6660 O   0  0  0  0  0  0  0  0  0  0  0  0
   -1.2324    2.8476    1.1205 C   0  0  0  0  0  0  0  0  0  0  0  0
   -2.1381    3.6151    0.3610 C   0  0  0  0  0  0  0  0  0  0  0  0
   -2.6285    4.8256    0.8647 C   0  0  0  0  0  0  0  0  0  0  0  0
   -2.2205    5.2808    2.1194 C   0  0  0  0  0  0  0  0  0  0  0  0
   -1.3244    4.5235    2.8791 C   0  0  0  0  0  0  0  0  0  0  0  0
   -0.8356    3.3094    2.3826 C   0  0  0  0  0  0  0  0  0  0  0  0
    0.1806    0.0146   -0.9256 C   0  0  2  0  0  0  0  0  0  0  0  0
    0.0284   -0.5516   -2.3824 C   0  0  0  0  0  0  0  0  0  0  0  0
    0.0737   -1.1386    0.1266 C   0  0  2  0  0  0  0  0  0  0  0  0
    1.2084   -2.1975   -0.0942 C   0  0  0  0  0  0  0  0  0  0  0  0
    2.5516   -1.6375   -0.6311 C   0  0  0  0  0  0  0  0  0  0  0  0
    2.8213   -0.1547   -0.2695 C   0  0  1  0  0  0  0  0  0  0  0  0
    2.9783    0.0003    1.2807 C   0  0  0  0  0  0  0  0  0  0  0  0
    4.1360    0.3578   -0.9589 C   0  0  2  0  0  0  0  0  0  0  0  0
    5.3715   -0.4266   -0.5986 C   0  0  0  0  0  0  0  0  0  0  0  0
    5.9649   -1.4067   -1.3717 C   0  0  0  0  0  0  0  0  0  0  0  0
    7.0745   -1.8188   -0.6633 C   0  0  0  0  0  0  0  0  0  0  0  0
    7.1600   -1.1460    0.4641 O   0  0  0  0  0  0  0  0  0  0  0  0
    6.1565   -0.3023    0.5345 C   0  0  0  0  0  0  0  0  0  0  0  0
    4.3356    1.7436   -0.6450 O   0  0  0  0  0  0  0  0  0  0  0  0
    3.2682    2.6489   -0.5527 C   0  0  0  0  0  0  0  0  0  0  0  0
    3.4944    3.8517   -0.2643 O   0  0  0  0  0  0  0  0  0  0  0  0
    1.8579    2.1926   -0.7998 C   0  0  1  0  0  0  0  0  0  0  0  0
    1.8717    1.4356   -1.9754 O   0  0  0  0  0  0  0  0  0  0  0  0
    1.6083    0.7015   -0.7877 C   0  0  2  0  0  0  0  0  0  0  0  0
   -4.8725   -0.3535   -1.9121 H   0  0  0  0  0  0  0  0  0  0  0  0
   -5.0382    0.4221   -0.2847 H   0  0  0  0  0  0  0  0  0  0  0  0
   -6.0796   -0.9377   -0.7248 H   0  0  0  0  0  0  0  0  0  0  0  0
   -3.7531   -3.7598   -0.6275 H   0  0  0  0  0  0  0  0  0  0  0  0
   -5.4089   -3.1748   -0.7793 H   0  0  0  0  0  0  0  0  0  0  0  0
   -4.2105   -2.8137   -2.0654 H   0  0  0  0  0  0  0  0  0  0  0  0
   -3.4064   -1.1435    3.2215 H   0  0  0  0  0  0  0  0  0  0  0  0
   -1.1307   -1.0669    2.5879 H   0  0  0  0  0  0  0  0  0  0  0  0
   -1.3467   -3.6486   -0.6250 H   0  0  0  0  0  0  0  0  0  0  0  0
   -0.5983   -3.6694    1.0251 H   0  0  0  0  0  0  0  0  0  0  0  0
   -2.3212   -3.6694    0.9069 H   0  0  0  0  0  0  0  0  0  0  0  0
   -2.2778   -1.5020   -1.6015 H   0  0  0  0  0  0  0  0  0  0  0  0
   -2.8378    0.7854   -1.6153 H   0  0  0  0  0  0  0  0  0  0  0  0
   -2.9401    0.8886    0.1675 H   0  0  0  0  0  0  0  0  0  0  0  0
   -0.8785    1.8401   -1.3929 H   0  0  0  0  0  0  0  0  0  0  0  0
   -2.4726    3.2910   -0.6140 H   0  0  0  0  0  0  0  0  0  0  0  0
   -3.3241    5.4110    0.2794 H   0  0  0  0  0  0  0  0  0  0  0  0
   -2.5979    6.2211    2.5054 H   0  0  0  0  0  0  0  0  0  0  0  0
   -1.0061    4.8761    3.8498 H   0  0  0  0  0  0  0  0  0  0  0  0
   -0.1378    2.7314    2.9750 H   0  0  0  0  0  0  0  0  0  0  0  0
   -0.2983   -1.6113   -2.3998 H   0  0  0  0  0  0  0  0  0  0  0  0
    0.9850   -0.5611   -2.9446 H   0  0  0  0  0  0  0  0  0  0  0  0
   -0.6875    0.0452   -2.9882 H   0  0  0  0  0  0  0  0  0  0  0  0
    0.3676   -0.6633    1.0726 H   0  0  0  0  0  0  0  0  0  0  0  0
    1.4213   -2.6929    0.8782 H   0  0  0  0  0  0  0  0  0  0  0  0
    0.8805   -2.9838   -0.8067 H   0  0  0  0  0  0  0  0  0  0  0  0
    2.5705   -1.7485   -1.7364 H   0  0  0  0  0  0  0  0  0  0  0  0
    3.3747   -2.2829   -0.2564 H   0  0  0  0  0  0  0  0  0  0  0  0
    2.0508    0.3161    1.7889 H   0  0  0  0  0  0  0  0  0  0  0  0
    3.7006    0.7975    1.5550 H   0  0  0  0  0  0  0  0  0  0  0  0
    3.3425   -0.9388    1.7486 H   0  0  0  0  0  0  0  0  0  0  0  0
    4.0161    0.2747   -2.0625 H   0  0  0  0  0  0  0  0  0  0  0  0
    5.6347   -1.7698   -2.3344 H   0  0  0  0  0  0  0  0  0  0  0  0
    7.7788   -2.5779   -0.9744 H   0  0  0  0  0  0  0  0  0  0  0  0
    5.9976    0.3843    1.3546 H   0  0  0  0  0  0  0  0  0  0  0  0
    1.0436    2.9439   -0.8442 H   0  0  0  0  0  0  0  0  0  0  0  0
  1  2  1  0
  2  3  1  0
  2  4  1  0
  4  5  2  0
  4  6  1  0
  6  7  2  0
  7  8  1  0
  8  9  1  1
  8 10  1  0
 10 11  1  0
 11 12  1  0
 12 13  1  0
 13 14  1  0
 14 15  2  0
 15 16  1  0
 16 17  2  0
 17 18  1  0
 18 19  2  0
 12 20  1  0
 20 21  1  6
 20 22  1  0
 22 23  1  0
 23 24  1  0
 24 25  1  0
 25 26  1  1
 25 27  1  0
 27 28  1  0
 28 29  1  0
 29 30  2  0
 30 31  1  0
 31 32  1  0
 27 33  1  0
 33 34  1  0
 34 35  2  0
 34 36  1  0
 36 37  1  0
 38 37  1  6
 10  2  1  0
 19 14  1  0
 38 20  1  0
 22  8  1  0
 38 25  1  0
 32 28  2  0
 38 36  1  0
  1 39  1  0
  1 40  1  0
  1 41  1  0
  3 42  1  0
  3 43  1  0
  3 44  1  0
  6 45  1  0
  7 46  1  0
  9 47  1  0
  9 48  1  0
  9 49  1  0
 10 50  1  6
 11 51  1  0
 11 52  1  0
 12 53  1  6
 15 54  1  0
 16 55  1  0
 17 56  1  0
 18 57  1  0
 19 58  1  0
 21 59  1  0
 21 60  1  0
 21 61  1  0
 22 62  1  1
 23 63  1  0
 23 64  1  0
 24 65  1  0
 24 66  1  0
 26 67  1  0
 26 68  1  0
 26 69  1  0
 27 70  1  6
 29 71  1  0
 30 72  1  0
 32 73  1  0
 36 74  1  6
M  END

     RDKit          3D

 80 86  0  0  0  0  0  0  0  0999 V2000
   -1.1053   -3.6438    0.9662 C   0  0  0  0  0  0  0  0  0  0  0  0
   -1.5306   -2.4232    0.3975 O   0  0  0  0  0  0  0  0  0  0  0  0
   -1.6230   -2.5056   -1.0223 C   0  0  1  0  0  0  0  0  0  0  0  0
   -3.0659   -2.8625   -1.3916 C   0  0  0  0  0  0  0  0  0  0  0  0
   -3.9939   -1.8642   -0.7883 C   0  0  0  0  0  0  0  0  0  0  0  0
   -5.0568   -2.2604   -0.3322 O   0  0  0  0  0  0  0  0  0  0  0  0
   -3.6397   -0.3824   -0.7298 C   0  0  0  0  0  0  0  0  0  0  0  0
   -4.8714    0.3833   -1.3025 C   0  0  0  0  0  0  0  0  0  0  0  0
   -3.4826    0.0167    0.7523 C   0  0  0  0  0  0  0  0  0  0  0  0
   -2.3422   -0.0398   -1.5968 C   0  0  1  0  0  0  0  0  0  0  0  0
   -1.8621    1.4404   -1.4506 C   0  0  0  0  0  0  0  0  0  0  0  0
   -0.5677    1.6938   -0.6561 C   0  0  1  0  0  0  0  0  0  0  0  0
   -0.7676    1.4812    0.7433 O   0  0  0  0  0  0  0  0  0  0  0  0
   -1.3598    2.3762    1.6489 C   0  0  0  0  0  0  0  0  0  0  0  0
   -1.4229    1.9949    2.9944 C   0  0  0  0  0  0  0  0  0  0  0  0
   -2.0541    2.8160    3.9358 C   0  0  0  0  0  0  0  0  0  0  0  0
   -2.6254    4.0243    3.5370 C   0  0  0  0  0  0  0  0  0  0  0  0
   -2.5482    4.4259    2.1978 C   0  0  0  0  0  0  0  0  0  0  0  0
   -1.9107    3.6137    1.2570 C   0  0  0  0  0  0  0  0  0  0  0  0
    0.6244    0.8335   -1.1425 C   0  0  2  0  0  0  0  0  0  0  0  0
    1.0053    1.2407   -2.5994 C   0  0  0  0  0  0  0  0  0  0  0  0
    0.2079   -0.6778   -1.0487 C   0  0  2  0  0  0  0  0  0  0  0  0
    1.4019   -1.6380   -1.3627 C   0  0  0  0  0  0  0  0  0  0  0  0
    2.7901   -1.1724   -0.8807 C   0  0  0  0  0  0  0  0  0  0  0  0
    2.7680   -0.1428    0.2719 C   0  0  1  0  0  0  0  0  0  0  0  0
    2.1675   -0.7703    1.5729 C   0  0  0  0  0  0  0  0  0  0  0  0
    4.2300    0.3553    0.5673 C   0  0  2  0  0  0  0  0  0  0  0  0
    5.1973   -0.7351    0.9542 C   0  0  0  0  0  0  0  0  0  0  0  0
    6.0993   -1.3493    0.1046 C   0  0  0  0  0  0  0  0  0  0  0  0
    6.7884   -2.2500    0.8848 C   0  0  0  0  0  0  0  0  0  0  0  0
    6.3445   -2.2049    2.1242 O   0  0  0  0  0  0  0  0  0  0  0  0
    5.3947   -1.3004    2.2007 C   0  0  0  0  0  0  0  0  0  0  0  0
    4.1991    1.3625    1.5833 O   0  0  0  0  0  0  0  0  0  0  0  0
    3.1858    2.3285    1.6364 C   0  0  0  0  0  0  0  0  0  0  0  0
    3.1850    3.1787    2.5637 O   0  0  0  0  0  0  0  0  0  0  0  0
    2.0823    2.3377    0.6146 C   0  0  1  0  0  0  0  0  0  0  0  0
    2.6547    2.1783   -0.6566 O   0  0  0  0  0  0  0  0  0  0  0  0
    1.8895    1.0760   -0.1941 C   0  0  2  0  0  0  0  0  0  0  0  0
   -1.1763   -1.1452   -1.7064 C   0  0  1  0  0  0  0  0  0  0  0  0
   -0.9589   -1.4924   -3.2285 C   0  0  0  0  0  0  0  0  0  0  0  0
   -0.0525   -3.8671    0.6905 H   0  0  0  0  0  0  0  0  0  0  0  0
   -1.7707   -4.4841    0.6736 H   0  0  0  0  0  0  0  0  0  0  0  0
   -1.1494   -3.5474    2.0695 H   0  0  0  0  0  0  0  0  0  0  0  0
   -0.9764   -3.3276   -1.4184 H   0  0  0  0  0  0  0  0  0  0  0  0
   -3.2233   -2.9022   -2.4887 H   0  0  0  0  0  0  0  0  0  0  0  0
   -3.3046   -3.8768   -1.0011 H   0  0  0  0  0  0  0  0  0  0  0  0
   -4.7063    1.4777   -1.3499 H   0  0  0  0  0  0  0  0  0  0  0  0
   -5.7683    0.2231   -0.6654 H   0  0  0  0  0  0  0  0  0  0  0  0
   -5.1154    0.0295   -2.3276 H   0  0  0  0  0  0  0  0  0  0  0  0
   -4.2984   -0.4166    1.3715 H   0  0  0  0  0  0  0  0  0  0  0  0
   -3.5583    1.1154    0.8757 H   0  0  0  0  0  0  0  0  0  0  0  0
   -2.5173   -0.3300    1.1698 H   0  0  0  0  0  0  0  0  0  0  0  0
   -2.7844   -0.0168   -2.6164 H   0  0  0  0  0  0  0  0  0  0  0  0
   -2.6494    2.0732   -1.0046 H   0  0  0  0  0  0  0  0  0  0  0  0
   -1.7452    1.8841   -2.4619 H   0  0  0  0  0  0  0  0  0  0  0  0
   -0.2918    2.7568   -0.8276 H   0  0  0  0  0  0  0  0  0  0  0  0
   -0.9967    1.0505    3.3098 H   0  0  0  0  0  0  0  0  0  0  0  0
   -2.1095    2.5060    4.9705 H   0  0  0  0  0  0  0  0  0  0  0  0
   -3.1264    4.6537    4.2607 H   0  0  0  0  0  0  0  0  0  0  0  0
   -2.9941    5.3619    1.8902 H   0  0  0  0  0  0  0  0  0  0  0  0
   -1.8752    3.9480    0.2304 H   0  0  0  0  0  0  0  0  0  0  0  0
    1.8042    0.5912   -3.0070 H   0  0  0  0  0  0  0  0  0  0  0  0
    0.1521    1.2230   -3.2925 H   0  0  0  0  0  0  0  0  0  0  0  0
    1.3585    2.2914   -2.6450 H   0  0  0  0  0  0  0  0  0  0  0  0
    0.0336   -0.8008    0.0254 H   0  0  0  0  0  0  0  0  0  0  0  0
    1.4976   -1.8083   -2.4536 H   0  0  0  0  0  0  0  0  0  0  0  0
    1.1967   -2.6282   -0.9048 H   0  0  0  0  0  0  0  0  0  0  0  0
    3.3752   -2.0715   -0.5840 H   0  0  0  0  0  0  0  0  0  0  0  0
    3.3308   -0.7249   -1.7443 H   0  0  0  0  0  0  0  0  0  0  0  0
    1.1352   -0.4335    1.7811 H   0  0  0  0  0  0  0  0  0  0  0  0
    2.7235   -0.4666    2.4827 H   0  0  0  0  0  0  0  0  0  0  0  0
    2.1803   -1.8807    1.5436 H   0  0  0  0  0  0  0  0  0  0  0  0
    4.6454    0.8219   -0.3550 H   0  0  0  0  0  0  0  0  0  0  0  0
    6.2432   -1.1499   -0.9497 H   0  0  0  0  0  0  0  0  0  0  0  0
    7.5772   -2.9074    0.5487 H   0  0  0  0  0  0  0  0  0  0  0  0
    4.8714   -1.0512    3.1135 H   0  0  0  0  0  0  0  0  0  0  0  0
    1.3728    3.1894    0.5983 H   0  0  0  0  0  0  0  0  0  0  0  0
   -0.3978   -2.4387   -3.3724 H   0  0  0  0  0  0  0  0  0  0  0  0
   -1.9159   -1.6478   -3.7684 H   0  0  0  0  0  0  0  0  0  0  0  0
   -0.4212   -0.7161   -3.7863 H   0  0  0  0  0  0  0  0  0  0  0  0
  1  2  1  0
  2  3  1  0
  3  4  1  0
  4  5  1  0
  5  6  2  0
  5  7  1  0
  7  8  1  0
  7  9  1  0
  7 10  1  0
 10 11  1  0
 11 12  1  0
 12 13  1  0
 13 14  1  0
 14 15  2  0
 15 16  1  0
 16 17  2  0
 17 18  1  0
 18 19  2  0
 12 20  1  0
 20 21  1  6
 20 22  1  0
 22 23  1  0
 23 24  1  0
 24 25  1  0
 25 26  1  1
 25 27  1  0
 27 28  1  0
 28 29  1  0
 29 30  2  0
 30 31  1  0
 31 32  1  0
 27 33  1  0
 33 34  1  0
 34 35  2  0
 34 36  1  0
 36 37  1  0
 38 37  1  6
 22 39  1  0
 39 40  1  6
 39  3  1  0
 39 10  1  0
 19 14  1  0
 38 20  1  0
 38 25  1  0
 32 28  2  0
 38 36  1  0
  1 41  1  0
  1 42  1  0
  1 43  1  0
  3 44  1  6
  4 45  1  0
  4 46  1  0
  8 47  1  0
  8 48  1  0
  8 49  1  0
  9 50  1  0
  9 51  1  0
  9 52  1  0
 10 53  1  6
 11 54  1  0
 11 55  1  0
 12 56  1  1
 15 57  1  0
 16 58  1  0
 17 59  1  0
 18 60  1  0
 19 61  1  0
 21 62  1  0
 21 63  1  0
 21 64  1  0
 22 65  1  1
 23 66  1  0
 23 67  1  0
 24 68  1  0
 24 69  1  0
 26 70  1  0
 26 71  1  0
 26 72  1  0
 27 73  1  6
 29 74  1  0
 30 75  1  0
 32 76  1  0
 36 77  1  6
 40 78  1  0
 40 79  1  0
 40 80  1  0
M  END

     RDKit          3D

 66 70  0  0  0  0  0  0  0  0999 V2000
    1.3049   -0.7804   -3.0101 C   0  0  0  0  0  0  0  0  0  0  0  0
    1.1646    0.0218   -1.9341 C   0  0  0  0  0  0  0  0  0  0  0  0
    0.0764   -0.0901   -0.8585 C   0  0  1  0  0  0  0  0  0  0  0  0
   -1.2761   -0.8722   -1.1715 C   0  0  1  0  0  0  0  0  0  0  0  0
   -1.7711   -0.6021   -2.6312 C   0  0  0  0  0  0  0  0  0  0  0  0
   -0.9687   -2.3682   -1.0312 C   0  0  0  0  0  0  0  0  0  0  0  0
   -1.5693   -3.1825   -0.1632 C   0  0  0  0  0  0  0  0  0  0  0  0
   -2.7174   -2.7422    0.6333 C   0  0  0  0  0  0  0  0  0  0  0  0
   -3.1105   -3.4552    1.5966 O   0  0  0  0  0  0  0  0  0  0  0  0
   -3.4768   -1.5021    0.2068 C   0  0  0  0  0  0  0  0  0  0  0  0
   -4.4102   -1.0361    1.3492 C   0  0  0  0  0  0  0  0  0  0  0  0
   -4.3619   -1.9008   -0.9944 C   0  0  0  0  0  0  0  0  0  0  0  0
   -2.4030   -0.3953   -0.1336 C   0  0  2  0  0  0  0  0  0  0  0  0
   -3.0127    1.0017   -0.5113 C   0  0  0  0  0  0  0  0  0  0  0  0
   -3.4291    1.8313    0.6689 C   0  0  0  0  0  0  0  0  0  0  0  0
   -2.6311    2.0413    1.6258 O   0  0  0  0  0  0  0  0  0  0  0  0
   -4.7025    2.4108    0.6632 O   0  0  0  0  0  0  0  0  0  0  0  0
   -5.1832    3.2288    1.7288 C   0  0  0  0  0  0  0  0  0  0  0  0
    0.7386   -0.4999    0.5111 C   0  0  0  0  0  0  0  0  0  0  0  0
    2.2253   -0.9206    0.4020 C   0  0  0  0  0  0  0  0  0  0  0  0
    3.1410    0.1737   -0.2398 C   0  0  2  0  0  0  0  0  0  0  0  0
    4.4239   -0.5070   -0.7710 C   0  0  0  0  0  0  0  0  0  0  0  0
    3.4770    1.2838    0.8242 C   0  0  1  0  0  0  0  0  0  0  0  0
    4.4797    0.8429    1.8644 C   0  0  0  0  0  0  0  0  0  0  0  0
    4.2249    0.1671    3.0496 C   0  0  0  0  0  0  0  0  0  0  0  0
    5.4647   -0.1372    3.5852 C   0  0  0  0  0  0  0  0  0  0  0  0
    6.4163    0.3139    2.7931 O   0  0  0  0  0  0  0  0  0  0  0  0
    5.8589    0.9059    1.7546 C   0  0  0  0  0  0  0  0  0  0  0  0
    3.9800    2.4619    0.2008 O   0  0  0  0  0  0  0  0  0  0  0  0
    3.3548    3.0430   -0.9053 C   0  0  0  0  0  0  0  0  0  0  0  0
    3.6207    4.2357   -1.2200 O   0  0  0  0  0  0  0  0  0  0  0  0
    2.4249    2.2407   -1.7385 C   0  0  1  0  0  0  0  0  0  0  0  0
    3.1639    1.3087   -2.4921 O   0  0  0  0  0  0  0  0  0  0  0  0
    2.3662    0.7846   -1.4525 C   0  0  2  0  0  0  0  0  0  0  0  0
    2.2046   -0.7347   -3.6200 H   0  0  0  0  0  0  0  0  0  0  0  0
    0.5842   -1.5277   -3.3039 H   0  0  0  0  0  0  0  0  0  0  0  0
   -0.2192    0.9641   -0.7161 H   0  0  0  0  0  0  0  0  0  0  0  0
   -1.3238    0.3277   -3.0484 H   0  0  0  0  0  0  0  0  0  0  0  0
   -2.8667   -0.4663   -2.7038 H   0  0  0  0  0  0  0  0  0  0  0  0
   -1.5610   -1.4460   -3.3212 H   0  0  0  0  0  0  0  0  0  0  0  0
   -0.1539   -2.7891   -1.6004 H   0  0  0  0  0  0  0  0  0  0  0  0
   -1.2093   -4.1980   -0.0450 H   0  0  0  0  0  0  0  0  0  0  0  0
   -3.8243   -0.6734    2.2263 H   0  0  0  0  0  0  0  0  0  0  0  0
   -5.0707   -1.8572    1.6885 H   0  0  0  0  0  0  0  0  0  0  0  0
   -5.0823   -0.2234    1.0064 H   0  0  0  0  0  0  0  0  0  0  0  0
   -4.9338   -1.0440   -1.3930 H   0  0  0  0  0  0  0  0  0  0  0  0
   -3.7620   -2.3551   -1.8129 H   0  0  0  0  0  0  0  0  0  0  0  0
   -5.1000   -2.6714   -0.6799 H   0  0  0  0  0  0  0  0  0  0  0  0
   -1.8719   -0.2335    0.8291 H   0  0  0  0  0  0  0  0  0  0  0  0
   -2.2888    1.6113   -1.0856 H   0  0  0  0  0  0  0  0  0  0  0  0
   -3.8917    0.8868   -1.1770 H   0  0  0  0  0  0  0  0  0  0  0  0
   -6.2519    3.4708    1.5521 H   0  0  0  0  0  0  0  0  0  0  0  0
   -4.5998    4.1732    1.7765 H   0  0  0  0  0  0  0  0  0  0  0  0
   -5.0964    2.6974    2.6958 H   0  0  0  0  0  0  0  0  0  0  0  0
    0.1965   -1.3241    1.0110 H   0  0  0  0  0  0  0  0  0  0  0  0
    0.6544    0.3454    1.2269 H   0  0  0  0  0  0  0  0  0  0  0  0
    2.5966   -1.2253    1.4018 H   0  0  0  0  0  0  0  0  0  0  0  0
    2.2474   -1.8422   -0.2226 H   0  0  0  0  0  0  0  0  0  0  0  0
    4.9160   -1.1168    0.0170 H   0  0  0  0  0  0  0  0  0  0  0  0
    5.1451    0.2521   -1.1416 H   0  0  0  0  0  0  0  0  0  0  0  0
    4.1784   -1.1985   -1.6074 H   0  0  0  0  0  0  0  0  0  0  0  0
    2.5483    1.5728    1.3612 H   0  0  0  0  0  0  0  0  0  0  0  0
    3.2625   -0.0854    3.4722 H   0  0  0  0  0  0  0  0  0  0  0  0
    5.6495   -0.6650    4.5101 H   0  0  0  0  0  0  0  0  0  0  0  0
    6.4100    1.3517    0.9343 H   0  0  0  0  0  0  0  0  0  0  0  0
    1.6310    2.7183   -2.3471 H   0  0  0  0  0  0  0  0  0  0  0  0
  1  2  2  3
  2  3  1  0
  3  4  1  0
  4  5  1  6
  4  6  1  0
  6  7  2  0
  7  8  1  0
  8  9  2  0
  8 10  1  0
 10 11  1  0
 10 12  1  0
 10 13  1  0
 13 14  1  0
 14 15  1  0
 15 16  2  0
 15 17  1  0
 17 18  1  0
  3 19  1  0
 19 20  1  0
 20 21  1  0
 21 22  1  6
 21 23  1  0
 23 24  1  0
 24 25  1  0
 25 26  2  0
 26 27  1  0
 27 28  1  0
 23 29  1  0
 29 30  1  0
 30 31  2  0
 30 32  1  0
 32 33  1  0
 34 33  1  6
 34  2  1  0
 13  4  1  0
 34 21  1  0
 28 24  2  0
 34 32  1  0
  1 35  1  0
  1 36  1  0
  3 37  1  1
  5 38  1  0
  5 39  1  0
  5 40  1  0
  6 41  1  0
  7 42  1  0
 11 43  1  0
 11 44  1  0
 11 45  1  0
 12 46  1  0
 12 47  1  0
 12 48  1  0
 13 49  1  1
 14 50  1  0
 14 51  1  0
 18 52  1  0
 18 53  1  0
 18 54  1  0
 19 55  1  0
 19 56  1  0
 20 57  1  0
 20 58  1  0
 22 59  1  0
 22 60  1  0
 22 61  1  0
 23 62  1  1
 25 63  1  0
 26 64  1  0
 28 65  1  0
 32 66  1  6
M  END

     RDKit          3D

 53 55  0  0  0  0  0  0  0  0999 V2000
   -3.0510    0.2876   -2.3937 C   0  0  0  0  0  0  0  0  0  0  0  0
   -2.5993    1.1337   -1.4516 C   0  0  0  0  0  0  0  0  0  0  0  0
   -1.4868    2.0935   -1.7837 C   0  0  0  0  0  0  0  0  0  0  0  0
   -0.1128    1.4028   -1.8554 C   0  0  0  0  0  0  0  0  0  0  0  0
   -0.0030   -0.0420   -1.2843 C   0  0  2  0  0  0  0  0  0  0  0  0
   -0.8229   -0.6269   -0.0993 C   0  0  2  0  0  0  0  0  0  0  0  0
   -1.8873    0.1282    0.7941 C   0  0  1  0  0  0  0  0  0  0  0  0
   -2.9237    0.9891    0.0222 C   0  0  2  0  0  0  0  0  0  0  0  0
   -4.3317    0.4546    0.3365 C   0  0  0  0  0  0  0  0  0  0  0  0
   -4.1210   -0.9019    0.9758 C   0  0  0  0  0  0  0  0  0  0  0  0
   -2.7599   -0.8218    1.6892 C   0  0  1  0  0  0  0  0  0  0  0  0
   -2.1940   -2.2469    1.9196 C   0  0  0  0  0  0  0  0  0  0  0  0
   -2.9198   -0.2477    2.9703 O   0  0  0  0  0  0  0  0  0  0  0  0
    0.6781   -0.2559    0.0804 C   0  0  2  0  0  0  0  0  0  0  0  0
    1.0208    0.9871    0.9417 C   0  0  0  0  0  0  0  0  0  0  0  0
    1.6345   -1.4758    0.1964 C   0  0  0  0  0  0  0  0  0  0  0  0
    2.8204   -1.4516   -0.7905 C   0  0  0  0  0  0  0  0  0  0  0  0
    3.5852   -0.1480   -0.7758 C   0  0  0  0  0  0  0  0  0  0  0  0
    4.5460    0.1751    0.1228 C   0  0  0  0  0  0  0  0  0  0  0  0
    5.0111   -0.7946    1.1863 C   0  0  0  0  0  0  0  0  0  0  0  0
    5.1699    1.5459    0.0291 C   0  0  0  0  0  0  0  0  0  0  0  0
   -2.7153    0.3984   -3.4232 H   0  0  0  0  0  0  0  0  0  0  0  0
   -3.7528   -0.5182   -2.1636 H   0  0  0  0  0  0  0  0  0  0  0  0
   -1.4286    2.9009   -1.0166 H   0  0  0  0  0  0  0  0  0  0  0  0
   -1.7148    2.5985   -2.7514 H   0  0  0  0  0  0  0  0  0  0  0  0
    0.6757    2.0725   -1.4635 H   0  0  0  0  0  0  0  0  0  0  0  0
    0.1520    1.3209   -2.9388 H   0  0  0  0  0  0  0  0  0  0  0  0
    0.2246   -0.8227   -2.0499 H   0  0  0  0  0  0  0  0  0  0  0  0
   -1.0507   -1.6803   -0.3492 H   0  0  0  0  0  0  0  0  0  0  0  0
   -1.3725    0.8018    1.5033 H   0  0  0  0  0  0  0  0  0  0  0  0
   -2.8968    2.0176    0.4655 H   0  0  0  0  0  0  0  0  0  0  0  0
   -5.0009    0.3905   -0.5521 H   0  0  0  0  0  0  0  0  0  0  0  0
   -4.8353    1.1241    1.0758 H   0  0  0  0  0  0  0  0  0  0  0  0
   -4.0935   -1.6614    0.1639 H   0  0  0  0  0  0  0  0  0  0  0  0
   -4.9507   -1.1547    1.6733 H   0  0  0  0  0  0  0  0  0  0  0  0
   -2.7755   -2.7502    2.7316 H   0  0  0  0  0  0  0  0  0  0  0  0
   -1.1339   -2.1899    2.2615 H   0  0  0  0  0  0  0  0  0  0  0  0
   -2.2720   -2.8902    1.0251 H   0  0  0  0  0  0  0  0  0  0  0  0
   -3.3557    0.6393    2.8884 H   0  0  0  0  0  0  0  0  0  0  0  0
    2.0543    1.3330    0.7614 H   0  0  0  0  0  0  0  0  0  0  0  0
    0.3583    1.8634    0.7500 H   0  0  0  0  0  0  0  0  0  0  0  0
    0.9488    0.7214    2.0165 H   0  0  0  0  0  0  0  0  0  0  0  0
    1.0721   -2.4218    0.0254 H   0  0  0  0  0  0  0  0  0  0  0  0
    2.0117   -1.5310    1.2368 H   0  0  0  0  0  0  0  0  0  0  0  0
    2.4285   -1.6178   -1.8180 H   0  0  0  0  0  0  0  0  0  0  0  0
    3.4960   -2.3067   -0.5738 H   0  0  0  0  0  0  0  0  0  0  0  0
    3.3016    0.5794   -1.5291 H   0  0  0  0  0  0  0  0  0  0  0  0
    5.4292   -1.7083    0.7095 H   0  0  0  0  0  0  0  0  0  0  0  0
    4.1725   -1.0654    1.8571 H   0  0  0  0  0  0  0  0  0  0  0  0
    5.7974   -0.3341    1.8225 H   0  0  0  0  0  0  0  0  0  0  0  0
    5.9446    1.6985    0.8105 H   0  0  0  0  0  0  0  0  0  0  0  0
    5.6416    1.6818   -0.9682 H   0  0  0  0  0  0  0  0  0  0  0  0
    4.3872    2.3262    0.1747 H   0  0  0  0  0  0  0  0  0  0  0  0
  1  2  2  3
  2  3  1  0
  3  4  1  0
  4  5  1  0
  5  6  1  0
  6  7  1  0
  7  8  1  0
  8  9  1  0
  9 10  1  0
 10 11  1  0
 11 12  1  0
 11 13  1  1
  6 14  1  0
 14 15  1  1
 14 16  1  0
 16 17  1  0
 17 18  1  0
 18 19  2  3
 19 20  1  0
 19 21  1  0
  8  2  1  0
 14  5  1  0
 11  7  1  0
  1 22  1  0
  1 23  1  0
  3 24  1  0
  3 25  1  0
  4 26  1  0
  4 27  1  0
  5 28  1  6
  6 29  1  6
  7 30  1  1
  8 31  1  1
  9 32  1  0
  9 33  1  0
 10 34  1  0
 10 35  1  0
 12 36  1  0
 12 37  1  0
 12 38  1  0
 13 39  1  0
 15 40  1  0
 15 41  1  0
 15 42  1  0
 16 43  1  0
 16 44  1  0
 17 45  1  0
 17 46  1  0
 18 47  1  0
 20 48  1  0
 20 49  1  0
 20 50  1  0
 21 51  1  0
 21 52  1  0
 21 53  1  0
M  END

     RDKit          3D

 54 56  0  0  0  0  0  0  0  0999 V2000
   -3.2739    1.7955    2.3618 C   0  0  0  0  0  0  0  0  0  0  0  0
   -2.5586    1.3173    1.3270 C   0  0  0  0  0  0  0  0  0  0  0  0
   -1.2279    1.9924    1.0045 C   0  0  0  0  0  0  0  0  0  0  0  0
    0.0047    1.1317    1.3822 C   0  0  0  0  0  0  0  0  0  0  0  0
   -0.2485   -0.3542    1.0972 C   0  0  1  0  0  0  0  0  0  0  0  0
   -0.7225   -0.4361   -0.3695 C   0  0  2  0  0  0  0  0  0  0  0  0
   -2.2263   -0.7984   -0.3572 C   0  0  1  0  0  0  0  0  0  0  0  0
   -3.1368    0.1111    0.5472 C   0  0  2  0  0  0  0  0  0  0  0  0
   -4.3161    0.5402   -0.3311 C   0  0  0  0  0  0  0  0  0  0  0  0
   -4.3647   -0.4597   -1.4763 C   0  0  0  0  0  0  0  0  0  0  0  0
   -2.8973   -0.8117   -1.7654 C   0  0  1  0  0  0  0  0  0  0  0  0
   -2.3149    0.2289   -2.7479 C   0  0  0  0  0  0  0  0  0  0  0  0
   -2.7871   -2.0781   -2.3748 O   0  0  0  0  0  0  0  0  0  0  0  0
    0.4633   -1.2815    0.1091 C   0  0  2  0  0  0  0  0  0  0  0  0
    0.1853   -2.7903    0.2206 C   0  0  0  0  0  0  0  0  0  0  0  0
    1.8365   -0.8478   -0.4553 C   0  0  0  0  0  0  0  0  0  0  0  0
    2.9881   -1.0585    0.5446 C   0  0  2  0  0  0  0  0  0  0  0  0
    2.7669   -0.3345    1.7265 O   0  0  0  0  0  0  0  0  0  0  0  0
    4.3219   -0.7066   -0.0896 C   0  0  0  0  0  0  0  0  0  0  0  0
    4.8231    0.5396   -0.2711 C   0  0  0  0  0  0  0  0  0  0  0  0
    4.1370    1.7875    0.2371 C   0  0  0  0  0  0  0  0  0  0  0  0
    6.1409    0.6736   -0.9881 C   0  0  0  0  0  0  0  0  0  0  0  0
   -2.9241    2.6342    2.9529 H   0  0  0  0  0  0  0  0  0  0  0  0
   -4.2288    1.3555    2.6319 H   0  0  0  0  0  0  0  0  0  0  0  0
   -1.2147    2.2471   -0.0750 H   0  0  0  0  0  0  0  0  0  0  0  0
   -1.1365    2.9717    1.5251 H   0  0  0  0  0  0  0  0  0  0  0  0
    0.2060    1.2429    2.4676 H   0  0  0  0  0  0  0  0  0  0  0  0
    0.8967    1.5090    0.8461 H   0  0  0  0  0  0  0  0  0  0  0  0
   -0.8920   -0.8799    1.8380 H   0  0  0  0  0  0  0  0  0  0  0  0
   -0.4144    0.4149   -1.0114 H   0  0  0  0  0  0  0  0  0  0  0  0
   -2.3234   -1.8274    0.0514 H   0  0  0  0  0  0  0  0  0  0  0  0
   -3.5557   -0.5767    1.3220 H   0  0  0  0  0  0  0  0  0  0  0  0
   -5.2695    0.5384    0.2433 H   0  0  0  0  0  0  0  0  0  0  0  0
   -4.1517    1.5632   -0.7423 H   0  0  0  0  0  0  0  0  0  0  0  0
   -4.8948   -0.0362   -2.3569 H   0  0  0  0  0  0  0  0  0  0  0  0
   -4.9232   -1.3617   -1.1399 H   0  0  0  0  0  0  0  0  0  0  0  0
   -2.9346    0.2762   -3.6698 H   0  0  0  0  0  0  0  0  0  0  0  0
   -2.2819    1.2412   -2.2924 H   0  0  0  0  0  0  0  0  0  0  0  0
   -1.2900   -0.0640   -3.0635 H   0  0  0  0  0  0  0  0  0  0  0  0
   -3.2252   -2.7534   -1.7926 H   0  0  0  0  0  0  0  0  0  0  0  0
   -0.6259   -3.0187    0.9405 H   0  0  0  0  0  0  0  0  0  0  0  0
   -0.0877   -3.1937   -0.7758 H   0  0  0  0  0  0  0  0  0  0  0  0
    1.0889   -3.3243    0.5733 H   0  0  0  0  0  0  0  0  0  0  0  0
    2.0380   -1.4535   -1.3654 H   0  0  0  0  0  0  0  0  0  0  0  0
    1.8206    0.2031   -0.7968 H   0  0  0  0  0  0  0  0  0  0  0  0
    3.0243   -2.1406    0.7950 H   0  0  0  0  0  0  0  0  0  0  0  0
    3.4465   -0.6432    2.3804 H   0  0  0  0  0  0  0  0  0  0  0  0
    4.9103   -1.5504   -0.4447 H   0  0  0  0  0  0  0  0  0  0  0  0
    3.1315    1.8985   -0.2086 H   0  0  0  0  0  0  0  0  0  0  0  0
    4.7091    2.7007   -0.0276 H   0  0  0  0  0  0  0  0  0  0  0  0
    4.0618    1.7615    1.3425 H   0  0  0  0  0  0  0  0  0  0  0  0
    6.0682    0.2195   -1.9978 H   0  0  0  0  0  0  0  0  0  0  0  0
    6.9366    0.1535   -0.4170 H   0  0  0  0  0  0  0  0  0  0  0  0
    6.4423    1.7322   -1.1123 H   0  0  0  0  0  0  0  0  0  0  0  0
  1  2  2  3
  2  3  1  0
  3  4  1  0
  4  5  1  0
  5  6  1  0
  6  7  1  0
  7  8  1  0
  8  9  1  0
  9 10  1  0
 10 11  1  0
 11 12  1  0
 11 13  1  6
  6 14  1  0
 14 15  1  1
 14 16  1  0
 16 17  1  0
 17 18  1  0
 17 19  1  0
 19 20  2  3
 20 21  1  0
 20 22  1  0
  8  2  1  0
 14  5  1  0
 11  7  1  0
  1 23  1  0
  1 24  1  0
  3 25  1  0
  3 26  1  0
  4 27  1  0
  4 28  1  0
  5 29  1  1
  6 30  1  6
  7 31  1  1
  8 32  1  1
  9 33  1  0
  9 34  1  0
 10 35  1  0
 10 36  1  0
 12 37  1  0
 12 38  1  0
 12 39  1  0
 13 40  1  0
 15 41  1  0
 15 42  1  0
 15 43  1  0
 16 44  1  0
 16 45  1  0
 17 46  1  1
 18 47  1  0
 19 48  1  0
 21 49  1  0
 21 50  1  0
 21 51  1  0
 22 52  1  0
 22 53  1  0
 22 54  1  0
M  END

     RDKit          3D

 40 41  0  0  0  0  0  0  0  0999 V2000
    4.0215    0.4315    1.0202 C   0  0  0  0  0  0  0  0  0  0  0  0
    3.3548    0.1007   -0.3189 C   0  0  0  0  0  0  0  0  0  0  0  0
    3.3988    1.3056   -1.2664 C   0  0  0  0  0  0  0  0  0  0  0  0
    1.9309   -0.3764   -0.1059 C   0  0  0  0  0  0  0  0  0  0  0  0
    1.6010   -1.6527   -0.3552 C   0  0  0  0  0  0  0  0  0  0  0  0
    0.2198   -2.1581   -0.0458 C   0  0  0  0  0  0  0  0  0  0  0  0
   -0.8630   -1.0715   -0.3049 C   0  0  1  0  0  0  0  0  0  0  0  0
   -1.0014   -0.8604   -1.8323 C   0  0  0  0  0  0  0  0  0  0  0  0
   -2.2095   -1.5796    0.2819 C   0  0  0  0  0  0  0  0  0  0  0  0
   -3.2595   -0.4670    0.4327 C   0  0  1  0  0  0  0  0  0  0  0  0
   -4.4663   -0.9929    0.9259 O   0  0  0  0  0  0  0  0  0  0  0  0
   -2.7313    0.6296    1.3678 C   0  0  0  0  0  0  0  0  0  0  0  0
   -1.4294    1.2717    0.8516 C   0  0  2  0  0  0  0  0  0  0  0  0
   -1.7045    2.3386   -0.2183 C   0  0  0  0  0  0  0  0  0  0  0  0
   -0.4217    0.2431    0.3557 C   0  0  0  0  0  0  0  0  0  0  0  0
    0.8887    0.5592    0.3893 C   0  0  0  0  0  0  0  0  0  0  0  0
    5.0891    0.6925    0.8595 H   0  0  0  0  0  0  0  0  0  0  0  0
    3.9790   -0.4506    1.6946 H   0  0  0  0  0  0  0  0  0  0  0  0
    3.5179    1.2880    1.5176 H   0  0  0  0  0  0  0  0  0  0  0  0
    3.9565   -0.7058   -0.7956 H   0  0  0  0  0  0  0  0  0  0  0  0
    4.4533    1.5704   -1.4958 H   0  0  0  0  0  0  0  0  0  0  0  0
    2.8860    1.0592   -2.2201 H   0  0  0  0  0  0  0  0  0  0  0  0
    2.9064    2.1917   -0.8136 H   0  0  0  0  0  0  0  0  0  0  0  0
    2.3366   -2.3539   -0.7315 H   0  0  0  0  0  0  0  0  0  0  0  0
    0.2145   -2.4528    1.0257 H   0  0  0  0  0  0  0  0  0  0  0  0
    0.0168   -3.0729   -0.6436 H   0  0  0  0  0  0  0  0  0  0  0  0
   -1.7723   -0.1049   -2.0751 H   0  0  0  0  0  0  0  0  0  0  0  0
   -0.0442   -0.5128   -2.2754 H   0  0  0  0  0  0  0  0  0  0  0  0
   -1.2886   -1.8089   -2.3343 H   0  0  0  0  0  0  0  0  0  0  0  0
   -2.6241   -2.3891   -0.3587 H   0  0  0  0  0  0  0  0  0  0  0  0
   -2.0373   -2.0266    1.2869 H   0  0  0  0  0  0  0  0  0  0  0  0
   -3.4808   -0.0267   -0.5603 H   0  0  0  0  0  0  0  0  0  0  0  0
   -4.2830   -1.3946    1.8160 H   0  0  0  0  0  0  0  0  0  0  0  0
   -3.5136    1.4078    1.5069 H   0  0  0  0  0  0  0  0  0  0  0  0
   -2.5341    0.1876    2.3700 H   0  0  0  0  0  0  0  0  0  0  0  0
   -0.9845    1.8034    1.7233 H   0  0  0  0  0  0  0  0  0  0  0  0
   -2.3176    3.1579    0.2140 H   0  0  0  0  0  0  0  0  0  0  0  0
   -2.2509    1.9168   -1.0853 H   0  0  0  0  0  0  0  0  0  0  0  0
   -0.7506    2.7799   -0.5793 H   0  0  0  0  0  0  0  0  0  0  0  0
    1.1966    1.5230    0.7763 H   0  0  0  0  0  0  0  0  0  0  0  0
  1  2  1  0
  2  3  1  0
  2  4  1  0
  4  5  2  0
  5  6  1  0
  6  7  1  0
  7  8  1  6
  7  9  1  0
  9 10  1  0
 10 11  1  0
 10 12  1  0
 12 13  1  0
 13 14  1  0
 13 15  1  0
 15 16  2  0
 16  4  1  0
 15  7  1  0
  1 17  1  0
  1 18  1  0
  1 19  1  0
  2 20  1  0
  3 21  1  0
  3 22  1  0
  3 23  1  0
  5 24  1  0
  6 25  1  0
  6 26  1  0
  8 27  1  0
  8 28  1  0
  8 29  1  0
  9 30  1  0
  9 31  1  0
 10 32  1  6
 11 33  1  0
 12 34  1  0
 12 35  1  0
 13 36  1  1
 14 37  1  0
 14 38  1  0
 14 39  1  0
 16 40  1  0
M  END

     RDKit          3D

 86 90  0  0  0  0  0  0  0  0999 V2000
    5.9662    2.0897   -0.8632 C   0  0  0  0  0  0  0  0  0  0  0  0
    5.4743    1.9332    0.6021 C   0  0  0  0  0  0  0  0  0  0  0  0
    3.9737    2.2745    0.6561 C   0  0  0  0  0  0  0  0  0  0  0  0
    6.1284    2.9190    1.3823 O   0  0  0  0  0  0  0  0  0  0  0  0
    5.8024    0.5180    1.2154 C   0  0  1  0  0  0  0  0  0  0  0  0
    5.4833    0.5058    2.5817 O   0  0  0  0  0  0  0  0  0  0  0  0
    5.2018   -0.7777    0.5367 C   0  0  1  0  0  0  0  0  0  0  0  0
    6.1205   -1.9799    0.8835 C   0  0  0  0  0  0  0  0  0  0  0  0
    3.7643   -1.0979    0.9910 C   0  0  0  0  0  0  0  0  0  0  0  0
    3.1900   -1.7684   -0.2222 C   0  0  1  0  0  0  0  0  0  0  0  0
    1.6310   -1.9510   -0.2274 C   0  0  2  0  0  0  0  0  0  0  0  0
    1.1731   -2.9602   -1.3021 C   0  0  0  0  0  0  0  0  0  0  0  0
   -0.2963   -2.6272   -1.6293 C   0  0  0  0  0  0  0  0  0  0  0  0
   -0.7452   -1.6386   -0.5377 C   0  0  2  0  0  0  0  0  0  0  0  0
   -1.2292   -2.4859    0.6872 C   0  0  0  0  0  0  0  0  0  0  0  0
   -1.9105   -0.7231   -0.8689 C   0  0  0  0  0  0  0  0  0  0  0  0
   -2.8819   -1.1331   -1.7061 C   0  0  0  0  0  0  0  0  0  0  0  0
   -4.2864   -0.6094   -1.6570 C   0  0  0  0  0  0  0  0  0  0  0  0
   -4.4831    0.7231   -0.8902 C   0  0  1  0  0  0  0  0  0  0  0  0
   -6.0161    1.0863   -0.6320 C   0  0  0  0  0  0  0  0  0  0  0  0
   -6.5663    1.8511   -1.8571 C   0  0  0  0  0  0  0  0  0  0  0  0
   -6.9192   -0.1742   -0.4409 C   0  0  0  0  0  0  0  0  0  0  0  0
   -6.2122    1.9970    0.5891 C   0  0  0  0  0  0  0  0  0  0  0  0
   -7.3547    2.1821    1.0220 O   0  0  0  0  0  0  0  0  0  0  0  0
   -5.0848    2.6637    1.3449 C   0  0  0  0  0  0  0  0  0  0  0  0
   -3.6772    2.2831    0.8978 C   0  0  0  0  0  0  0  0  0  0  0  0
   -3.5578    0.8264    0.3710 C   0  0  1  0  0  0  0  0  0  0  0  0
   -3.9654   -0.1959    1.4695 C   0  0  0  0  0  0  0  0  0  0  0  0
   -2.0636    0.5875   -0.0949 C   0  0  1  0  0  0  0  0  0  0  0  0
   -0.9774    0.8452    1.0242 C   0  0  0  0  0  0  0  0  0  0  0  0
    0.3692    0.0511    0.9730 C   0  0  0  0  0  0  0  0  0  0  0  0
    0.5602   -0.8059   -0.2997 C   0  0  1  0  0  0  0  0  0  0  0  0
    0.8693    0.1503   -1.5027 C   0  0  0  0  0  0  0  0  0  0  0  0
    3.9317   -1.0739   -1.3650 C   0  0  2  0  0  0  0  0  0  0  0  0
    4.1137   -1.9668   -2.4347 O   0  0  0  0  0  0  0  0  0  0  0  0
    5.1980   -0.6656   -0.8772 O   0  0  0  0  0  0  0  0  0  0  0  0
    5.2550    1.6380   -1.5928 H   0  0  0  0  0  0  0  0  0  0  0  0
    6.9748    1.6256   -1.0025 H   0  0  0  0  0  0  0  0  0  0  0  0
    6.0484    3.1682   -1.1323 H   0  0  0  0  0  0  0  0  0  0  0  0
    3.5803    2.1266    1.6795 H   0  0  0  0  0  0  0  0  0  0  0  0
    3.4011    1.6480   -0.0524 H   0  0  0  0  0  0  0  0  0  0  0  0
    3.8099    3.3340    0.3651 H   0  0  0  0  0  0  0  0  0  0  0  0
    7.1087    2.7785    1.3017 H   0  0  0  0  0  0  0  0  0  0  0  0
    6.9105    0.4185    1.1175 H   0  0  0  0  0  0  0  0  0  0  0  0
    6.2213    0.9548    3.0672 H   0  0  0  0  0  0  0  0  0  0  0  0
    6.1365   -2.1634    1.9787 H   0  0  0  0  0  0  0  0  0  0  0  0
    7.1595   -1.7944    0.5415 H   0  0  0  0  0  0  0  0  0  0  0  0
    5.7718   -2.9041    0.3733 H   0  0  0  0  0  0  0  0  0  0  0  0
    3.7358   -1.7725    1.8754 H   0  0  0  0  0  0  0  0  0  0  0  0
    3.1864   -0.1963    1.2421 H   0  0  0  0  0  0  0  0  0  0  0  0
    3.5836   -2.8138   -0.1908 H   0  0  0  0  0  0  0  0  0  0  0  0
    1.4613   -2.4444    0.7543 H   0  0  0  0  0  0  0  0  0  0  0  0
    1.2493   -3.9923   -0.9190 H   0  0  0  0  0  0  0  0  0  0  0  0
    1.7712   -2.8691   -2.2318 H   0  0  0  0  0  0  0  0  0  0  0  0
   -0.3558   -2.1439   -2.6376 H   0  0  0  0  0  0  0  0  0  0  0  0
   -0.9148   -3.5506   -1.6604 H   0  0  0  0  0  0  0  0  0  0  0  0
   -1.5401   -1.8521    1.5335 H   0  0  0  0  0  0  0  0  0  0  0  0
   -2.1253   -3.0782    0.3944 H   0  0  0  0  0  0  0  0  0  0  0  0
   -0.4913   -3.2162    1.0562 H   0  0  0  0  0  0  0  0  0  0  0  0
   -2.7572   -2.0488   -2.2621 H   0  0  0  0  0  0  0  0  0  0  0  0
   -4.6620   -0.4975   -2.7018 H   0  0  0  0  0  0  0  0  0  0  0  0
   -4.8576   -1.4295   -1.1735 H   0  0  0  0  0  0  0  0  0  0  0  0
   -4.0971    1.4937   -1.5946 H   0  0  0  0  0  0  0  0  0  0  0  0
   -6.0272    2.8101   -1.9972 H   0  0  0  0  0  0  0  0  0  0  0  0
   -6.4543    1.2493   -2.7805 H   0  0  0  0  0  0  0  0  0  0  0  0
   -7.6481    2.0859   -1.7331 H   0  0  0  0  0  0  0  0  0  0  0  0
   -6.5437   -0.8339    0.3680 H   0  0  0  0  0  0  0  0  0  0  0  0
   -7.9685    0.1061   -0.1850 H   0  0  0  0  0  0  0  0  0  0  0  0
   -6.9881   -0.7666   -1.3773 H   0  0  0  0  0  0  0  0  0  0  0  0
   -5.2126    3.7676    1.2434 H   0  0  0  0  0  0  0  0  0  0  0  0
   -5.2012    2.4188    2.4253 H   0  0  0  0  0  0  0  0  0  0  0  0
   -2.9980    2.4462    1.7586 H   0  0  0  0  0  0  0  0  0  0  0  0
   -3.3651    2.9905    0.1027 H   0  0  0  0  0  0  0  0  0  0  0  0
   -3.3813   -0.0624    2.3985 H   0  0  0  0  0  0  0  0  0  0  0  0
   -5.0209   -0.0706    1.7717 H   0  0  0  0  0  0  0  0  0  0  0  0
   -3.8444   -1.2405    1.1123 H   0  0  0  0  0  0  0  0  0  0  0  0
   -1.8747    1.3806   -0.8657 H   0  0  0  0  0  0  0  0  0  0  0  0
   -1.4025    0.6869    2.0316 H   0  0  0  0  0  0  0  0  0  0  0  0
   -0.7327    1.9370    0.9897 H   0  0  0  0  0  0  0  0  0  0  0  0
    0.4430   -0.5974    1.8726 H   0  0  0  0  0  0  0  0  0  0  0  0
    1.2010    0.7801    1.0686 H   0  0  0  0  0  0  0  0  0  0  0  0
   -0.0065    0.7237   -1.8405 H   0  0  0  0  0  0  0  0  0  0  0  0
    1.2395   -0.3985   -2.3862 H   0  0  0  0  0  0  0  0  0  0  0  0
    1.6072    0.9184   -1.2108 H   0  0  0  0  0  0  0  0  0  0  0  0
    3.4070   -0.1704   -1.7127 H   0  0  0  0  0  0  0  0  0  0  0  0
    4.4838   -1.4323   -3.1882 H   0  0  0  0  0  0  0  0  0  0  0  0
  1  2  1  0
  2  3  1  0
  2  4  1  0
  2  5  1  0
  5  6  1  0
  5  7  1  0
  7  8  1  6
  7  9  1  0
  9 10  1  0
 10 11  1  0
 11 12  1  0
 12 13  1  0
 13 14  1  0
 14 15  1  1
 14 16  1  0
 16 17  2  0
 17 18  1  0
 18 19  1  0
 19 20  1  0
 20 21  1  0
 20 22  1  0
 20 23  1  0
 23 24  2  0
 23 25  1  0
 25 26  1  0
 26 27  1  0
 27 28  1  1
 27 29  1  0
 29 30  1  0
 30 31  1  0
 31 32  1  0
 32 33  1  6
 10 34  1  0
 34 35  1  0
 34 36  1  0
 36  7  1  0
 32 11  1  0
 32 14  1  0
 29 16  1  0
 27 19  1  0
  1 37  1  0
  1 38  1  0
  1 39  1  0
  3 40  1  0
  3 41  1  0
  3 42  1  0
  4 43  1  0
  5 44  1  1
  6 45  1  0
  8 46  1  0
  8 47  1  0
  8 48  1  0
  9 49  1  0
  9 50  1  0
 10 51  1  1
 11 52  1  1
 12 53  1  0
 12 54  1  0
 13 55  1  0
 13 56  1  0
 15 57  1  0
 15 58  1  0
 15 59  1  0
 17 60  1  0
 18 61  1  0
 18 62  1  0
 19 63  1  6
 21 64  1  0
 21 65  1  0
 21 66  1  0
 22 67  1  0
 22 68  1  0
 22 69  1  0
 25 70  1  0
 25 71  1  0
 26 72  1  0
 26 73  1  0
 28 74  1  0
 28 75  1  0
 28 76  1  0
 29 77  1  6
 30 78  1  0
 30 79  1  0
 31 80  1  0
 31 81  1  0
 33 82  1  0
 33 83  1  0
 33 84  1  0
 34 85  1  6
 35 86  1  0
M  END

     RDKit          3D

 54 55  0  0  0  0  0  0  0  0999 V2000
    4.3249    1.6222    0.3799 C   0  0  0  0  0  0  0  0  0  0  0  0
    4.3189    0.4504   -0.2699 C   0  0  0  0  0  0  0  0  0  0  0  0
    3.4553    0.1776   -1.4973 C   0  0  2  0  0  0  0  0  0  0  0  0
    4.2832   -0.6147   -2.5268 C   0  0  0  0  0  0  0  0  0  0  0  0
    2.9889    1.3667   -2.0899 O   0  0  0  0  0  0  0  0  0  0  0  0
    2.2382   -0.6857   -1.0790 C   0  0  0  0  0  0  0  0  0  0  0  0
    1.1878    0.0764   -0.2325 C   0  0  0  0  0  0  0  0  0  0  0  0
    0.0229   -0.7858    0.4004 C   0  0  2  0  0  0  0  0  0  0  0  0
    0.6409   -1.6949    1.5057 C   0  0  0  0  0  0  0  0  0  0  0  0
   -0.7269   -1.6548   -0.6934 C   0  0  1  0  0  0  0  0  0  0  0  0
   -0.0195   -2.9600   -1.1698 C   0  0  0  0  0  0  0  0  0  0  0  0
   -2.1660   -2.0019   -0.2458 C   0  0  0  0  0  0  0  0  0  0  0  0
   -3.0736   -0.7838   -0.0335 C   0  0  0  0  0  0  0  0  0  0  0  0
   -2.3381    0.5513    0.3559 C   0  0  1  0  0  0  0  0  0  0  0  0
   -2.0802    1.4209   -0.9098 C   0  0  0  0  0  0  0  0  0  0  0  0
   -3.2779    1.4003    1.2513 C   0  0  0  0  0  0  0  0  0  0  0  0
   -4.7239    1.5909    0.8817 C   0  0  0  0  0  0  0  0  0  0  0  0
   -2.8132    2.1033    2.3085 C   0  0  0  0  0  0  0  0  0  0  0  0
   -1.3883    2.1192    2.6696 C   0  0  0  0  0  0  0  0  0  0  0  0
   -1.0012    2.7737    3.6804 O   0  0  0  0  0  0  0  0  0  0  0  0
   -0.3877    1.4207    1.8052 C   0  0  0  0  0  0  0  0  0  0  0  0
   -1.0256    0.1731    1.1481 C   0  0  2  0  0  0  0  0  0  0  0  0
    4.8874    1.7289    1.3060 H   0  0  0  0  0  0  0  0  0  0  0  0
    3.7651    2.4705   -0.0065 H   0  0  0  0  0  0  0  0  0  0  0  0
    4.8700   -0.3881    0.1597 H   0  0  0  0  0  0  0  0  0  0  0  0
    3.7015   -0.7452   -3.4674 H   0  0  0  0  0  0  0  0  0  0  0  0
    5.2257   -0.0849   -2.7709 H   0  0  0  0  0  0  0  0  0  0  0  0
    4.5434   -1.6205   -2.1351 H   0  0  0  0  0  0  0  0  0  0  0  0
    3.7782    1.9015   -2.3844 H   0  0  0  0  0  0  0  0  0  0  0  0
    1.7401   -1.0592   -1.9998 H   0  0  0  0  0  0  0  0  0  0  0  0
    2.6310   -1.5544   -0.5103 H   0  0  0  0  0  0  0  0  0  0  0  0
    0.7569    0.8848   -0.8655 H   0  0  0  0  0  0  0  0  0  0  0  0
    1.7342    0.5767    0.5940 H   0  0  0  0  0  0  0  0  0  0  0  0
    1.1797   -1.0757    2.2430 H   0  0  0  0  0  0  0  0  0  0  0  0
    1.3674   -2.4314    1.1332 H   0  0  0  0  0  0  0  0  0  0  0  0
   -0.1249   -2.2671    2.0417 H   0  0  0  0  0  0  0  0  0  0  0  0
   -0.8249   -1.0329   -1.5974 H   0  0  0  0  0  0  0  0  0  0  0  0
   -0.0980   -3.0283   -2.2780 H   0  0  0  0  0  0  0  0  0  0  0  0
    1.0524   -3.0157   -0.9224 H   0  0  0  0  0  0  0  0  0  0  0  0
   -0.4951   -3.8823   -0.7325 H   0  0  0  0  0  0  0  0  0  0  0  0
   -2.6500   -2.6567   -1.0072 H   0  0  0  0  0  0  0  0  0  0  0  0
   -2.1212   -2.5855    0.6998 H   0  0  0  0  0  0  0  0  0  0  0  0
   -3.7687   -1.0717    0.7835 H   0  0  0  0  0  0  0  0  0  0  0  0
   -3.6944   -0.6367   -0.9576 H   0  0  0  0  0  0  0  0  0  0  0  0
   -1.8816    2.4901   -0.6177 H   0  0  0  0  0  0  0  0  0  0  0  0
   -2.9904    1.4046   -1.5739 H   0  0  0  0  0  0  0  0  0  0  0  0
   -1.2282    1.0740   -1.5211 H   0  0  0  0  0  0  0  0  0  0  0  0
   -4.9692    1.1575   -0.1181 H   0  0  0  0  0  0  0  0  0  0  0  0
   -5.3649    1.1279    1.6422 H   0  0  0  0  0  0  0  0  0  0  0  0
   -4.9484    2.6861    0.8524 H   0  0  0  0  0  0  0  0  0  0  0  0
   -3.5007    2.7207    2.8901 H   0  0  0  0  0  0  0  0  0  0  0  0
    0.4693    1.1221    2.4573 H   0  0  0  0  0  0  0  0  0  0  0  0
   -0.0539    2.1505    1.0147 H   0  0  0  0  0  0  0  0  0  0  0  0
   -1.4266   -0.4245    2.0090 H   0  0  0  0  0  0  0  0  0  0  0  0
  1  2  2  3
  2  3  1  0
  3  4  1  0
  3  5  1  6
  3  6  1  0
  6  7  1  0
  8  7  1  6
  8  9  1  0
  8 10  1  0
 10 11  1  0
 10 12  1  0
 12 13  1  0
 13 14  1  0
 14 15  1  6
 14 16  1  0
 16 17  1  0
 16 18  2  0
 18 19  1  0
 19 20  2  0
 19 21  1  0
 21 22  1  0
 22  8  1  0
 22 14  1  0
  1 23  1  0
  1 24  1  0
  2 25  1  0
  4 26  1  0
  4 27  1  0
  4 28  1  0
  5 29  1  0
  6 30  1  0
  6 31  1  0
  7 32  1  0
  7 33  1  0
  9 34  1  0
  9 35  1  0
  9 36  1  0
 10 37  1  6
 11 38  1  0
 11 39  1  0
 11 40  1  0
 12 41  1  0
 12 42  1  0
 13 43  1  0
 13 44  1  0
 15 45  1  0
 15 46  1  0
 15 47  1  0
 17 48  1  0
 17 49  1  0
 17 50  1  0
 18 51  1  0
 21 52  1  0
 21 53  1  0
 22 54  1  1
M  END

     RDKit          3D

 53 54  0  0  0  0  0  0  0  0999 V2000
   -4.9024    2.3212    0.6067 C   0  0  0  0  0  0  0  0  0  0  0  0
   -4.1574    1.3594    0.0565 C   0  0  0  0  0  0  0  0  0  0  0  0
   -3.7627    0.1182    0.7845 C   0  0  0  0  0  0  0  0  0  0  0  0
   -4.4321   -0.2057    2.1009 C   0  0  0  0  0  0  0  0  0  0  0  0
   -2.8292   -0.7382    0.3120 C   0  0  0  0  0  0  0  0  0  0  0  0
   -2.0450   -0.5992   -0.9722 C   0  0  0  0  0  0  0  0  0  0  0  0
   -0.5224   -0.9329   -0.8251 C   0  0  1  0  0  0  0  0  0  0  0  0
    0.0792   -1.1517   -2.2758 C   0  0  2  0  0  0  0  0  0  0  0  0
    0.7248   -2.5385   -2.4568 C   0  0  0  0  0  0  0  0  0  0  0  0
    1.0296   -0.0306   -2.7582 C   0  0  0  0  0  0  0  0  0  0  0  0
    2.1280    0.3792   -1.7543 C   0  0  0  0  0  0  0  0  0  0  0  0
    1.8449   -0.0903   -0.3089 C   0  0  1  0  0  0  0  0  0  0  0  0
    2.9220    0.3205    0.7726 C   0  0  0  0  0  0  0  0  0  0  0  0
    4.3249   -0.1771    0.3321 C   0  0  0  0  0  0  0  0  0  0  0  0
    3.0026    1.8415    1.0322 C   0  0  0  0  0  0  0  0  0  0  0  0
    2.5683   -0.3664    2.0853 C   0  0  0  0  0  0  0  0  0  0  0  0
    3.3323   -0.3142    3.0374 O   0  0  0  0  0  0  0  0  0  0  0  0
    1.2655   -1.1028    2.2268 C   0  0  0  0  0  0  0  0  0  0  0  0
    0.1408   -0.2603    1.6193 C   0  0  0  0  0  0  0  0  0  0  0  0
    0.3238    0.0732    0.0882 C   0  0  2  0  0  0  0  0  0  0  0  0
   -0.1718    1.5356   -0.1240 C   0  0  0  0  0  0  0  0  0  0  0  0
   -5.2586    2.2671    1.6293 H   0  0  0  0  0  0  0  0  0  0  0  0
   -5.1663    3.1987    0.0290 H   0  0  0  0  0  0  0  0  0  0  0  0
   -3.8675    1.5118   -0.9744 H   0  0  0  0  0  0  0  0  0  0  0  0
   -4.1131    0.5319    2.8708 H   0  0  0  0  0  0  0  0  0  0  0  0
   -4.1774   -1.2209    2.4753 H   0  0  0  0  0  0  0  0  0  0  0  0
   -5.5339   -0.1593    1.9839 H   0  0  0  0  0  0  0  0  0  0  0  0
   -2.6599   -1.6602    0.8551 H   0  0  0  0  0  0  0  0  0  0  0  0
   -2.1511    0.3837   -1.4659 H   0  0  0  0  0  0  0  0  0  0  0  0
   -2.5021   -1.3401   -1.6622 H   0  0  0  0  0  0  0  0  0  0  0  0
   -0.4809   -1.9208   -0.3116 H   0  0  0  0  0  0  0  0  0  0  0  0
   -0.7472   -1.1523   -3.0215 H   0  0  0  0  0  0  0  0  0  0  0  0
    0.0511   -3.3364   -2.0767 H   0  0  0  0  0  0  0  0  0  0  0  0
    0.8972   -2.7402   -3.5366 H   0  0  0  0  0  0  0  0  0  0  0  0
    1.7066   -2.6251   -1.9503 H   0  0  0  0  0  0  0  0  0  0  0  0
    1.5078   -0.3359   -3.7168 H   0  0  0  0  0  0  0  0  0  0  0  0
    0.4208    0.8553   -3.0292 H   0  0  0  0  0  0  0  0  0  0  0  0
    2.2493    1.4804   -1.7916 H   0  0  0  0  0  0  0  0  0  0  0  0
    3.0809   -0.0683   -2.1047 H   0  0  0  0  0  0  0  0  0  0  0  0
    1.9955   -1.1868   -0.3612 H   0  0  0  0  0  0  0  0  0  0  0  0
    4.2992   -1.2603    0.0768 H   0  0  0  0  0  0  0  0  0  0  0  0
    4.6921    0.3928   -0.5475 H   0  0  0  0  0  0  0  0  0  0  0  0
    5.0745   -0.0362    1.1418 H   0  0  0  0  0  0  0  0  0  0  0  0
    3.9343    2.0885    1.5848 H   0  0  0  0  0  0  0  0  0  0  0  0
    3.0122    2.4253    0.0896 H   0  0  0  0  0  0  0  0  0  0  0  0
    2.1701    2.1837    1.6805 H   0  0  0  0  0  0  0  0  0  0  0  0
    1.3309   -2.0893    1.7190 H   0  0  0  0  0  0  0  0  0  0  0  0
    1.0445   -1.2827    3.3018 H   0  0  0  0  0  0  0  0  0  0  0  0
   -0.8028   -0.7928    1.8180 H   0  0  0  0  0  0  0  0  0  0  0  0
    0.0804    0.6765    2.2208 H   0  0  0  0  0  0  0  0  0  0  0  0
    0.4590    2.2800    0.3868 H   0  0  0  0  0  0  0  0  0  0  0  0
   -0.2164    1.8267   -1.1857 H   0  0  0  0  0  0  0  0  0  0  0  0
   -1.1931    1.6638    0.2935 H   0  0  0  0  0  0  0  0  0  0  0  0
  1  2  2  0
  2  3  1  0
  3  4  1  0
  3  5  2  0
  5  6  1  0
  6  7  1  0
  7  8  1  0
  8  9  1  0
  8 10  1  0
 10 11  1  0
 11 12  1  0
 12 13  1  0
 13 14  1  0
 13 15  1  0
 13 16  1  0
 16 17  2  0
 16 18  1  0
 18 19  1  0
 19 20  1  0
 20 21  1  1
 20  7  1  0
 20 12  1  0
  1 22  1  0
  1 23  1  0
  2 24  1  0
  4 25  1  0
  4 26  1  0
  4 27  1  0
  5 28  1  0
  6 29  1  0
  6 30  1  0
  7 31  1  1
  8 32  1  6
  9 33  1  0
  9 34  1  0
  9 35  1  0
 10 36  1  0
 10 37  1  0
 11 38  1  0
 11 39  1  0
 12 40  1  6
 14 41  1  0
 14 42  1  0
 14 43  1  0
 15 44  1  0
 15 45  1  0
 15 46  1  0
 18 47  1  0
 18 48  1  0
 19 49  1  0
 19 50  1  0
 21 51  1  0
 21 52  1  0
 21 53  1  0
M  END

     RDKit          3D

 56 59  0  0  0  0  0  0  0  0999 V2000
   -5.8968    1.0147   -0.0317 C   0  0  0  0  0  0  0  0  0  0  0  0
   -4.8288   -0.0103   -0.4425 C   0  0  0  0  0  0  0  0  0  0  0  0
   -3.4311    0.2717    0.1619 C   0  0  1  0  0  0  0  0  0  0  0  0
   -3.3513   -0.0084    1.6242 C   0  0  0  0  0  0  0  0  0  0  0  0
   -4.1805    0.3704    2.4277 O   0  0  0  0  0  0  0  0  0  0  0  0
   -2.1042   -0.7000    2.0308 C   0  0  0  0  0  0  0  0  0  0  0  0
   -1.2422   -0.7545    0.7517 C   0  0  2  0  0  0  0  0  0  0  0  0
   -0.0902    0.3120    0.7560 C   0  0  1  0  0  0  0  0  0  0  0  0
    0.8747    0.0411    1.9598 C   0  0  0  0  0  0  0  0  0  0  0  0
    2.3539    0.4707    1.8430 C   0  0  0  0  0  0  0  0  0  0  0  0
    2.7654    1.0138    0.4759 C   0  0  1  0  0  0  0  0  0  0  0  0
    4.3052    1.2756    0.4127 C   0  0  0  0  0  0  0  0  0  0  0  0
    5.0858    0.6081   -0.7408 C   0  0  1  0  0  0  0  0  0  0  0  0
    5.5307   -0.6769   -0.3965 O   0  0  0  0  0  0  0  0  0  0  0  0
    4.2843    0.5344   -2.0121 C   0  0  0  0  0  0  0  0  0  0  0  0
    4.8751    0.4154   -3.0785 O   0  0  0  0  0  0  0  0  0  0  0  0
    2.7835    0.6432   -2.0162 C   0  0  0  0  0  0  0  0  0  0  0  0
    2.1504    0.1682   -0.6768 C   0  0  1  0  0  0  0  0  0  0  0  0
    2.3883   -1.3610   -0.5009 C   0  0  0  0  0  0  0  0  0  0  0  0
    0.6093    0.4674   -0.6582 C   0  0  1  0  0  0  0  0  0  0  0  0
   -0.1633   -0.2429   -1.7931 C   0  0  0  0  0  0  0  0  0  0  0  0
   -1.6463    0.0722   -1.6803 C   0  0  0  0  0  0  0  0  0  0  0  0
   -2.2677   -0.6000   -0.4260 C   0  0  2  0  0  0  0  0  0  0  0  0
   -2.7469   -2.0288   -0.8077 C   0  0  0  0  0  0  0  0  0  0  0  0
   -6.8004    0.8727   -0.6653 H   0  0  0  0  0  0  0  0  0  0  0  0
   -5.5189    2.0495   -0.1520 H   0  0  0  0  0  0  0  0  0  0  0  0
   -6.2050    0.8579    1.0291 H   0  0  0  0  0  0  0  0  0  0  0  0
   -4.7446    0.0242   -1.5502 H   0  0  0  0  0  0  0  0  0  0  0  0
   -5.1778   -1.0265   -0.1564 H   0  0  0  0  0  0  0  0  0  0  0  0
   -3.1983    1.3511    0.0322 H   0  0  0  0  0  0  0  0  0  0  0  0
   -2.3649   -1.7180    2.3800 H   0  0  0  0  0  0  0  0  0  0  0  0
   -1.6357   -0.1567    2.8723 H   0  0  0  0  0  0  0  0  0  0  0  0
   -0.7560   -1.7559    0.7016 H   0  0  0  0  0  0  0  0  0  0  0  0
   -0.5742    1.2957    0.9706 H   0  0  0  0  0  0  0  0  0  0  0  0
    0.4624    0.5409    2.8681 H   0  0  0  0  0  0  0  0  0  0  0  0
    0.8655   -1.0446    2.2059 H   0  0  0  0  0  0  0  0  0  0  0  0
    2.5775    1.2452    2.6121 H   0  0  0  0  0  0  0  0  0  0  0  0
    2.9908   -0.4062    2.0883 H   0  0  0  0  0  0  0  0  0  0  0  0
    2.3163    2.0332    0.4199 H   0  0  0  0  0  0  0  0  0  0  0  0
    4.4603    2.3749    0.3068 H   0  0  0  0  0  0  0  0  0  0  0  0
    4.8008    1.0234    1.3797 H   0  0  0  0  0  0  0  0  0  0  0  0
    5.9822    1.2399   -0.9477 H   0  0  0  0  0  0  0  0  0  0  0  0
    6.0896   -0.5965    0.4374 H   0  0  0  0  0  0  0  0  0  0  0  0
    2.5248    1.7114   -2.2048 H   0  0  0  0  0  0  0  0  0  0  0  0
    2.3999    0.0373   -2.8678 H   0  0  0  0  0  0  0  0  0  0  0  0
    2.3117   -1.8908   -1.4674 H   0  0  0  0  0  0  0  0  0  0  0  0
    1.6323   -1.8273    0.1536 H   0  0  0  0  0  0  0  0  0  0  0  0
    3.3682   -1.5851   -0.0595 H   0  0  0  0  0  0  0  0  0  0  0  0
    0.5072    1.5443   -0.9214 H   0  0  0  0  0  0  0  0  0  0  0  0
    0.1810    0.1126   -2.7888 H   0  0  0  0  0  0  0  0  0  0  0  0
   -0.0124   -1.3365   -1.7700 H   0  0  0  0  0  0  0  0  0  0  0  0
   -2.1665   -0.2513   -2.6070 H   0  0  0  0  0  0  0  0  0  0  0  0
   -1.7574    1.1751   -1.6566 H   0  0  0  0  0  0  0  0  0  0  0  0
   -1.8962   -2.6746   -1.1262 H   0  0  0  0  0  0  0  0  0  0  0  0
   -3.4592   -2.0012   -1.6554 H   0  0  0  0  0  0  0  0  0  0  0  0
   -3.2599   -2.5144    0.0476 H   0  0  0  0  0  0  0  0  0  0  0  0
  1  2  1  0
  2  3  1  0
  3  4  1  0
  4  5  2  0
  4  6  1  0
  6  7  1  0
  7  8  1  0
  8  9  1  0
  9 10  1  0
 10 11  1  0
 11 12  1  0
 12 13  1  0
 13 14  1  0
 13 15  1  0
 15 16  2  0
 15 17  1  0
 17 18  1  0
 18 19  1  1
 18 20  1  0
 20 21  1  0
 21 22  1  0
 22 23  1  0
 23 24  1  6
 23  3  1  0
 23  7  1  0
 20  8  1  0
 18 11  1  0
  1 25  1  0
  1 26  1  0
  1 27  1  0
  2 28  1  0
  2 29  1  0
  3 30  1  1
  6 31  1  0
  6 32  1  0
  7 33  1  6
  8 34  1  1
  9 35  1  0
  9 36  1  0
 10 37  1  0
 10 38  1  0
 11 39  1  6
 12 40  1  0
 12 41  1  0
 13 42  1  6
 14 43  1  0
 17 44  1  0
 17 45  1  0
 19 46  1  0
 19 47  1  0
 19 48  1  0
 20 49  1  6
 21 50  1  0
 21 51  1  0
 22 52  1  0
 22 53  1  0
 24 54  1  0
 24 55  1  0
 24 56  1  0
M  END

     RDKit          3D

 46 49  0  0  0  0  0  0  0  0999 V2000
    2.7173    0.3860    0.7087 C   0  0  0  0  0  0  0  0  0  0  0  0
    1.8087    0.6883   -0.5093 C   0  0  2  0  0  0  0  0  0  0  0  0
    2.6311    0.3276   -1.7497 C   0  0  0  0  0  0  0  0  0  0  0  0
    3.2591    1.2324   -2.5058 C   0  0  0  0  0  0  0  0  0  0  0  0
    4.0637    0.8030   -3.5608 O   0  0  0  0  0  0  0  0  0  0  0  0
    3.0804    2.6628   -2.2329 C   0  0  0  0  0  0  0  0  0  0  0  0
    3.7273    3.5260   -2.8836 O   0  0  0  0  0  0  0  0  0  0  0  0
    2.1044    3.0845   -1.2263 C   0  0  0  0  0  0  0  0  0  0  0  0
    1.4536    2.1838   -0.4728 C   0  0  0  0  0  0  0  0  0  0  0  0
    0.3984    2.6986    0.4728 C   0  0  0  0  0  0  0  0  0  0  0  0
   -0.3933    1.5809    1.1489 C   0  0  0  0  0  0  0  0  0  0  0  0
   -0.7742    0.4715    0.1478 C   0  0  1  0  0  0  0  0  0  0  0  0
    0.4836   -0.1785   -0.5283 C   0  0  2  0  0  0  0  0  0  0  0  0
    0.6873   -1.6260   -0.0455 C   0  0  0  0  0  0  0  0  0  0  0  0
   -0.5160   -2.4738   -0.4515 C   0  0  0  0  0  0  0  0  0  0  0  0
   -1.8540   -1.9529    0.1629 C   0  0  2  0  0  0  0  0  0  0  0  0
   -2.3413   -2.9841    1.2177 C   0  0  0  0  0  0  0  0  0  0  0  0
   -2.9558   -1.7780   -0.9087 C   0  0  0  0  0  0  0  0  0  0  0  0
   -3.7986   -0.6790   -0.3644 C   0  0  0  0  0  0  0  0  0  0  0  0
   -4.8468   -0.3255   -0.8736 O   0  0  0  0  0  0  0  0  0  0  0  0
   -3.1971    0.0044    0.8104 C   0  0  0  0  0  0  0  0  0  0  0  0
   -1.7547   -0.5439    0.8425 C   0  0  2  0  0  0  0  0  0  0  0  0
    3.1559   -0.6365    0.6421 H   0  0  0  0  0  0  0  0  0  0  0  0
    3.5677    1.1064    0.7423 H   0  0  0  0  0  0  0  0  0  0  0  0
    2.1755    0.4596    1.6734 H   0  0  0  0  0  0  0  0  0  0  0  0
    2.7888   -0.7184   -1.9823 H   0  0  0  0  0  0  0  0  0  0  0  0
    4.5393    1.4576   -4.1709 H   0  0  0  0  0  0  0  0  0  0  0  0
    1.8802    4.1415   -1.1315 H   0  0  0  0  0  0  0  0  0  0  0  0
    0.8783    3.3339    1.2496 H   0  0  0  0  0  0  0  0  0  0  0  0
   -0.3182    3.3287   -0.1052 H   0  0  0  0  0  0  0  0  0  0  0  0
   -1.3103    2.0345    1.5813 H   0  0  0  0  0  0  0  0  0  0  0  0
    0.1696    1.1601    2.0057 H   0  0  0  0  0  0  0  0  0  0  0  0
   -1.3373    0.9753   -0.6755 H   0  0  0  0  0  0  0  0  0  0  0  0
    0.2034   -0.2628   -1.6062 H   0  0  0  0  0  0  0  0  0  0  0  0
    0.8111   -1.6526    1.0598 H   0  0  0  0  0  0  0  0  0  0  0  0
    1.5940   -2.0717   -0.5065 H   0  0  0  0  0  0  0  0  0  0  0  0
   -0.5679   -2.5062   -1.5633 H   0  0  0  0  0  0  0  0  0  0  0  0
   -0.3077   -3.5229   -0.1445 H   0  0  0  0  0  0  0  0  0  0  0  0
   -3.3092   -2.6798    1.6678 H   0  0  0  0  0  0  0  0  0  0  0  0
   -2.4834   -3.9835    0.7543 H   0  0  0  0  0  0  0  0  0  0  0  0
   -1.5930   -3.0887    2.0326 H   0  0  0  0  0  0  0  0  0  0  0  0
   -3.5533   -2.7044   -1.0671 H   0  0  0  0  0  0  0  0  0  0  0  0
   -2.5347   -1.4376   -1.8802 H   0  0  0  0  0  0  0  0  0  0  0  0
   -3.2447    1.1070    0.6862 H   0  0  0  0  0  0  0  0  0  0  0  0
   -3.7519   -0.2799    1.7314 H   0  0  0  0  0  0  0  0  0  0  0  0
   -1.4352   -0.6678    1.9028 H   0  0  0  0  0  0  0  0  0  0  0  0
  2  1  1  1
  2  3  1  0
  3  4  2  0
  4  5  1  0
  4  6  1  0
  6  7  2  0
  6  8  1  0
  8  9  2  0
  9 10  1  0
 10 11  1  0
 11 12  1  0
 12 13  1  0
 13 14  1  0
 14 15  1  0
 15 16  1  0
 16 17  1  1
 16 18  1  0
 18 19  1  0
 19 20  2  0
 19 21  1  0
 21 22  1  0
  9  2  1  0
 22 12  1  0
 13  2  1  0
 22 16  1  0
  1 23  1  0
  1 24  1  0
  1 25  1  0
  3 26  1  0
  5 27  1  0
  8 28  1  0
 10 29  1  0
 10 30  1  0
 11 31  1  0
 11 32  1  0
 12 33  1  6
 13 34  1  6
 14 35  1  0
 14 36  1  0
 15 37  1  0
 15 38  1  0
 17 39  1  0
 17 40  1  0
 17 41  1  0
 18 42  1  0
 18 43  1  0
 21 44  1  0
 21 45  1  0
 22 46  1  1
M  END

     RDKit          3D

 82 86  0  0  0  0  0  0  0  0999 V2000
    7.0025   -1.6129    1.4745 C   0  0  0  0  0  0  0  0  0  0  0  0
    7.2316   -0.8102    0.1656 C   0  0  0  0  0  0  0  0  0  0  0  0
    8.2421    0.3198    0.3935 C   0  0  0  0  0  0  0  0  0  0  0  0
    7.7376   -1.6808   -0.8080 O   0  0  0  0  0  0  0  0  0  0  0  0
    5.8893   -0.2558   -0.3823 C   0  0  1  0  0  0  0  0  0  0  0  0
    5.0226   -1.3780   -0.6231 O   0  0  0  0  0  0  0  0  0  0  0  0
    3.6747   -1.0541   -1.0009 C   0  0  0  0  0  0  0  0  0  0  0  0
    3.2719    0.3790   -0.7042 C   0  0  1  0  0  0  0  0  0  0  0  0
    1.8010    0.7482   -1.0557 C   0  0  2  0  0  0  0  0  0  0  0  0
    1.5630    2.2877   -0.9165 C   0  0  0  0  0  0  0  0  0  0  0  0
    0.1505    2.4488   -0.3394 C   0  0  0  0  0  0  0  0  0  0  0  0
   -0.5374    1.1258   -0.6834 C   0  0  2  0  0  0  0  0  0  0  0  0
   -0.9558    1.2166   -2.2053 C   0  0  0  0  0  0  0  0  0  0  0  0
   -1.7937    0.7814    0.0750 C   0  0  0  0  0  0  0  0  0  0  0  0
   -2.6136    1.7632    0.5482 C   0  0  0  0  0  0  0  0  0  0  0  0
   -4.0714    1.5749    0.7771 C   0  0  0  0  0  0  0  0  0  0  0  0
   -4.5467    0.0787    0.7642 C   0  0  1  0  0  0  0  0  0  0  0  0
   -6.1447   -0.1157    0.7362 C   0  0  0  0  0  0  0  0  0  0  0  0
   -6.8863    1.1404    0.2057 C   0  0  0  0  0  0  0  0  0  0  0  0
   -6.6475   -0.3593    2.1686 C   0  0  0  0  0  0  0  0  0  0  0  0
   -6.5910   -1.3108   -0.1127 C   0  0  0  0  0  0  0  0  0  0  0  0
   -7.7544   -1.3459   -0.5422 O   0  0  0  0  0  0  0  0  0  0  0  0
   -5.6896   -2.4237   -0.5680 C   0  0  0  0  0  0  0  0  0  0  0  0
   -4.2475   -2.2298   -0.1333 C   0  0  0  0  0  0  0  0  0  0  0  0
   -3.7757   -0.7693   -0.2765 C   0  0  1  0  0  0  0  0  0  0  0  0
   -4.0564   -0.2156   -1.7280 C   0  0  0  0  0  0  0  0  0  0  0  0
   -2.2567   -0.6757    0.0996 C   0  0  1  0  0  0  0  0  0  0  0  0
   -1.3442   -1.6871   -0.6968 C   0  0  0  0  0  0  0  0  0  0  0  0
    0.1437   -1.2847   -0.9796 C   0  0  0  0  0  0  0  0  0  0  0  0
    0.5604    0.0804   -0.3790 C   0  0  1  0  0  0  0  0  0  0  0  0
    0.7958   -0.1067    1.1657 C   0  0  0  0  0  0  0  0  0  0  0  0
    3.7806    0.6940    0.7029 C   0  0  0  0  0  0  0  0  0  0  0  0
    5.2869    0.8709    0.5744 C   0  0  2  0  0  0  0  0  0  0  0  0
    5.5136    2.1420    0.0483 O   0  0  0  0  0  0  0  0  0  0  0  0
    6.6976   -0.9602    2.3157 H   0  0  0  0  0  0  0  0  0  0  0  0
    7.9331   -2.1568    1.7436 H   0  0  0  0  0  0  0  0  0  0  0  0
    6.1942   -2.3567    1.3296 H   0  0  0  0  0  0  0  0  0  0  0  0
    9.2260   -0.1028    0.6335 H   0  0  0  0  0  0  0  0  0  0  0  0
    8.3333    0.9331   -0.5203 H   0  0  0  0  0  0  0  0  0  0  0  0
    7.9469    0.9586    1.2489 H   0  0  0  0  0  0  0  0  0  0  0  0
    8.5765   -2.0769   -0.4641 H   0  0  0  0  0  0  0  0  0  0  0  0
    6.1039    0.2272   -1.3739 H   0  0  0  0  0  0  0  0  0  0  0  0
    3.0270   -1.7398   -0.4292 H   0  0  0  0  0  0  0  0  0  0  0  0
    3.5278   -1.2946   -2.0778 H   0  0  0  0  0  0  0  0  0  0  0  0
    3.8078    1.0085   -1.4346 H   0  0  0  0  0  0  0  0  0  0  0  0
    1.7532    0.4899   -2.1418 H   0  0  0  0  0  0  0  0  0  0  0  0
    1.5802    2.7351   -1.9263 H   0  0  0  0  0  0  0  0  0  0  0  0
    2.2914    2.8063   -0.2729 H   0  0  0  0  0  0  0  0  0  0  0  0
   -0.3696    3.3191   -0.7692 H   0  0  0  0  0  0  0  0  0  0  0  0
    0.1803    2.6038    0.7755 H   0  0  0  0  0  0  0  0  0  0  0  0
   -1.6215    2.0630   -2.3301 H   0  0  0  0  0  0  0  0  0  0  0  0
   -0.0830    1.4055   -2.8597 H   0  0  0  0  0  0  0  0  0  0  0  0
   -1.4250    0.2828   -2.5675 H   0  0  0  0  0  0  0  0  0  0  0  0
   -2.2768    2.7798    0.5417 H   0  0  0  0  0  0  0  0  0  0  0  0
   -4.3733    2.0373    1.7294 H   0  0  0  0  0  0  0  0  0  0  0  0
   -4.5372    2.1259   -0.0627 H   0  0  0  0  0  0  0  0  0  0  0  0
   -4.1971   -0.2926    1.7550 H   0  0  0  0  0  0  0  0  0  0  0  0
   -6.6380    2.0541    0.7965 H   0  0  0  0  0  0  0  0  0  0  0  0
   -7.9761    1.0183    0.2653 H   0  0  0  0  0  0  0  0  0  0  0  0
   -6.6480    1.3387   -0.8765 H   0  0  0  0  0  0  0  0  0  0  0  0
   -6.6272    0.5873    2.7564 H   0  0  0  0  0  0  0  0  0  0  0  0
   -6.0251   -1.1172    2.6767 H   0  0  0  0  0  0  0  0  0  0  0  0
   -7.6980   -0.7119    2.1467 H   0  0  0  0  0  0  0  0  0  0  0  0
   -5.7140   -2.4696   -1.6771 H   0  0  0  0  0  0  0  0  0  0  0  0
   -6.0527   -3.3861   -0.1846 H   0  0  0  0  0  0  0  0  0  0  0  0
   -4.1527   -2.5358    0.9340 H   0  0  0  0  0  0  0  0  0  0  0  0
   -3.6229   -2.9153   -0.7274 H   0  0  0  0  0  0  0  0  0  0  0  0
   -3.5094   -0.7989   -2.4723 H   0  0  0  0  0  0  0  0  0  0  0  0
   -3.7375    0.8395   -1.8259 H   0  0  0  0  0  0  0  0  0  0  0  0
   -5.1279   -0.2306   -1.9754 H   0  0  0  0  0  0  0  0  0  0  0  0
   -2.1766   -0.9908    1.1694 H   0  0  0  0  0  0  0  0  0  0  0  0
   -1.3166   -2.6150   -0.0902 H   0  0  0  0  0  0  0  0  0  0  0  0
   -1.8039   -1.9521   -1.6619 H   0  0  0  0  0  0  0  0  0  0  0  0
    0.2558   -1.2342   -2.0818 H   0  0  0  0  0  0  0  0  0  0  0  0
    0.8164   -2.0886   -0.6394 H   0  0  0  0  0  0  0  0  0  0  0  0
    1.1170    0.8330    1.6404 H   0  0  0  0  0  0  0  0  0  0  0  0
   -0.0941   -0.4620    1.6905 H   0  0  0  0  0  0  0  0  0  0  0  0
    1.5661   -0.8781    1.3197 H   0  0  0  0  0  0  0  0  0  0  0  0
    3.3004    1.6095    1.1329 H   0  0  0  0  0  0  0  0  0  0  0  0
    3.6025   -0.1303    1.4044 H   0  0  0  0  0  0  0  0  0  0  0  0
    5.7036    0.8234    1.5972 H   0  0  0  0  0  0  0  0  0  0  0  0
    6.5082    2.2817   -0.0000 H   0  0  0  0  0  0  0  0  0  0  0  0
  1  2  1  0
  2  3  1  0
  2  4  1  0
  2  5  1  0
  5  6  1  0
  6  7  1  0
  7  8  1  0
  8  9  1  0
  9 10  1  0
 10 11  1  0
 11 12  1  0
 12 13  1  6
 12 14  1  0
 14 15  2  0
 15 16  1  0
 16 17  1  0
 17 18  1  0
 18 19  1  0
 18 20  1  0
 18 21  1  0
 21 22  2  0
 21 23  1  0
 23 24  1  0
 24 25  1  0
 25 26  1  6
 25 27  1  0
 27 28  1  0
 28 29  1  0
 29 30  1  0
 30 31  1  1
  8 32  1  0
 32 33  1  0
 33 34  1  0
 33  5  1  0
 30  9  1  0
 30 12  1  0
 27 14  1  0
 25 17  1  0
  1 35  1  0
  1 36  1  0
  1 37  1  0
  3 38  1  0
  3 39  1  0
  3 40  1  0
  4 41  1  0
  5 42  1  6
  7 43  1  0
  7 44  1  0
  8 45  1  6
  9 46  1  6
 10 47  1  0
 10 48  1  0
 11 49  1  0
 11 50  1  0
 13 51  1  0
 13 52  1  0
 13 53  1  0
 15 54  1  0
 16 55  1  0
 16 56  1  0
 17 57  1  1
 19 58  1  0
 19 59  1  0
 19 60  1  0
 20 61  1  0
 20 62  1  0
 20 63  1  0
 23 64  1  0
 23 65  1  0
 24 66  1  0
 24 67  1  0
 26 68  1  0
 26 69  1  0
 26 70  1  0
 27 71  1  1
 28 72  1  0
 28 73  1  0
 29 74  1  0
 29 75  1  0
 31 76  1  0
 31 77  1  0
 31 78  1  0
 32 79  1  0
 32 80  1  0
 33 81  1  1
 34 82  1  0
M  END

     RDKit          3D

 81 85  0  0  0  0  0  0  0  0999 V2000
    6.8219   -1.0857   -0.0923 C   0  0  0  0  0  0  0  0  0  0  0  0
    5.6988   -0.3410    0.3675 O   0  0  0  0  0  0  0  0  0  0  0  0
    5.5604    1.0368    0.1506 C   0  0  0  0  0  0  0  0  0  0  0  0
    6.4544    1.6603   -0.4859 O   0  0  0  0  0  0  0  0  0  0  0  0
    4.3847    1.7758    0.7684 C   0  0  1  0  0  0  0  0  0  0  0  0
    4.7784    2.2324    2.1987 C   0  0  0  0  0  0  0  0  0  0  0  0
    4.0799    3.0700    0.0075 C   0  0  0  0  0  0  0  0  0  0  0  0
    4.9979    3.8935   -0.2556 O   0  0  0  0  0  0  0  0  0  0  0  0
    2.6976    3.4465   -0.3116 C   0  0  0  0  0  0  0  0  0  0  0  0
    1.7568    2.5125   -0.4217 C   0  0  0  0  0  0  0  0  0  0  0  0
    2.1133    1.0337   -0.4048 C   0  0  1  0  0  0  0  0  0  0  0  0
    2.7445    0.7256   -1.7926 C   0  0  0  0  0  0  0  0  0  0  0  0
    3.1398    0.8363    0.7497 C   0  0  0  0  0  0  0  0  0  0  0  0
    2.9563   -0.1329    1.7050 C   0  0  0  0  0  0  0  0  0  0  0  0
    3.9084   -0.3424    2.7008 O   0  0  0  0  0  0  0  0  0  0  0  0
    1.7670   -1.0189    1.7076 C   0  0  0  0  0  0  0  0  0  0  0  0
    1.4431   -1.6435    2.7536 O   0  0  0  0  0  0  0  0  0  0  0  0
    1.0264   -1.2316    0.4207 C   0  0  1  0  0  0  0  0  0  0  0  0
    1.9237   -2.1673   -0.4433 C   0  0  0  0  0  0  0  0  0  0  0  0
   -0.3488   -1.8846    0.6284 C   0  0  0  0  0  0  0  0  0  0  0  0
   -0.5324   -3.1786    0.9179 C   0  0  0  0  0  0  0  0  0  0  0  0
   -1.9593   -3.5795    0.8482 C   0  0  0  0  0  0  0  0  0  0  0  0
   -2.6162   -2.3807    0.1538 C   0  0  1  0  0  0  0  0  0  0  0  0
   -4.0801   -2.2275    0.5074 C   0  0  0  0  0  0  0  0  0  0  0  0
   -5.1126   -2.0507   -0.3924 C   0  0  0  0  0  0  0  0  0  0  0  0
   -6.2669   -2.0089    0.3602 C   0  0  0  0  0  0  0  0  0  0  0  0
   -5.9729   -2.1604    1.6299 O   0  0  0  0  0  0  0  0  0  0  0  0
   -4.6741   -2.2976    1.7556 C   0  0  0  0  0  0  0  0  0  0  0  0
   -1.6795   -1.1692    0.4659 C   0  0  1  0  0  0  0  0  0  0  0  0
   -2.0155   -0.5388    1.8465 C   0  0  0  0  0  0  0  0  0  0  0  0
   -1.6774   -0.0893   -0.6998 C   0  0  1  0  0  0  0  0  0  0  0  0
   -2.2191    1.1611   -0.2511 O   0  0  0  0  0  0  0  0  0  0  0  0
   -3.5625    1.5331   -0.3727 C   0  0  0  0  0  0  0  0  0  0  0  0
   -4.3879    0.7743   -0.9510 O   0  0  0  0  0  0  0  0  0  0  0  0
   -4.0171    2.8331    0.2349 C   0  0  0  0  0  0  0  0  0  0  0  0
   -4.2408    2.6570    1.7396 C   0  0  0  0  0  0  0  0  0  0  0  0
   -5.2826    3.3714   -0.4444 C   0  0  0  0  0  0  0  0  0  0  0  0
   -0.2698    0.2093   -1.2884 C   0  0  2  0  0  0  0  0  0  0  0  0
    0.0463   -0.7389   -2.3076 O   0  0  0  0  0  0  0  0  0  0  0  0
   -0.4330   -0.6585   -3.6214 C   0  0  0  0  0  0  0  0  0  0  0  0
   -0.1229   -1.7586   -4.5765 C   0  0  0  0  0  0  0  0  0  0  0  0
   -1.1360    0.3224   -3.9963 O   0  0  0  0  0  0  0  0  0  0  0  0
    0.8012    0.1973   -0.1615 C   0  0  2  0  0  0  0  0  0  0  0  0
    6.8621   -1.0663   -1.2015 H   0  0  0  0  0  0  0  0  0  0  0  0
    6.7234   -2.1349    0.2472 H   0  0  0  0  0  0  0  0  0  0  0  0
    7.7580   -0.6581    0.3255 H   0  0  0  0  0  0  0  0  0  0  0  0
    5.4276    3.1346    2.1740 H   0  0  0  0  0  0  0  0  0  0  0  0
    3.8747    2.4845    2.7930 H   0  0  0  0  0  0  0  0  0  0  0  0
    5.3792    1.4717    2.7373 H   0  0  0  0  0  0  0  0  0  0  0  0
    2.4422    4.4895   -0.4512 H   0  0  0  0  0  0  0  0  0  0  0  0
    0.7416    2.8409   -0.6081 H   0  0  0  0  0  0  0  0  0  0  0  0
    3.6574    1.3291   -1.9705 H   0  0  0  0  0  0  0  0  0  0  0  0
    2.0383    0.9850   -2.6099 H   0  0  0  0  0  0  0  0  0  0  0  0
    3.0408   -0.3218   -1.9343 H   0  0  0  0  0  0  0  0  0  0  0  0
    3.8185   -1.0829    3.3876 H   0  0  0  0  0  0  0  0  0  0  0  0
    1.5520   -2.3072   -1.4735 H   0  0  0  0  0  0  0  0  0  0  0  0
    2.9769   -1.8259   -0.4663 H   0  0  0  0  0  0  0  0  0  0  0  0
    1.9979   -3.1780    0.0052 H   0  0  0  0  0  0  0  0  0  0  0  0
    0.2593   -3.8822    1.1513 H   0  0  0  0  0  0  0  0  0  0  0  0
   -2.0781   -4.5092    0.2481 H   0  0  0  0  0  0  0  0  0  0  0  0
   -2.3360   -3.7418    1.8794 H   0  0  0  0  0  0  0  0  0  0  0  0
   -2.5591   -2.5948   -0.9383 H   0  0  0  0  0  0  0  0  0  0  0  0
   -5.0356   -1.9664   -1.4685 H   0  0  0  0  0  0  0  0  0  0  0  0
   -7.2701   -1.8780   -0.0233 H   0  0  0  0  0  0  0  0  0  0  0  0
   -4.1707   -2.4443    2.7026 H   0  0  0  0  0  0  0  0  0  0  0  0
   -1.9788   -1.3004    2.6553 H   0  0  0  0  0  0  0  0  0  0  0  0
   -1.2953    0.2599    2.1168 H   0  0  0  0  0  0  0  0  0  0  0  0
   -3.0293   -0.0915    1.8495 H   0  0  0  0  0  0  0  0  0  0  0  0
   -2.3008   -0.4489   -1.5483 H   0  0  0  0  0  0  0  0  0  0  0  0
   -3.2074    3.5819    0.0894 H   0  0  0  0  0  0  0  0  0  0  0  0
   -5.0080    1.8762    1.9342 H   0  0  0  0  0  0  0  0  0  0  0  0
   -4.5782    3.6147    2.1926 H   0  0  0  0  0  0  0  0  0  0  0  0
   -3.2904    2.3618    2.2361 H   0  0  0  0  0  0  0  0  0  0  0  0
   -6.1425    2.6871   -0.2774 H   0  0  0  0  0  0  0  0  0  0  0  0
   -5.1140    3.4795   -1.5363 H   0  0  0  0  0  0  0  0  0  0  0  0
   -5.5393    4.3720   -0.0339 H   0  0  0  0  0  0  0  0  0  0  0  0
   -0.2941    1.2189   -1.7524 H   0  0  0  0  0  0  0  0  0  0  0  0
   -0.2633   -1.4164   -5.6239 H   0  0  0  0  0  0  0  0  0  0  0  0
   -0.7966   -2.6178   -4.3782 H   0  0  0  0  0  0  0  0  0  0  0  0
    0.9300   -2.0842   -4.4425 H   0  0  0  0  0  0  0  0  0  0  0  0
    0.3143    0.7667    0.6658 H   0  0  0  0  0  0  0  0  0  0  0  0
  1  2  1  0
  2  3  1  0
  3  4  2  0
  3  5  1  0
  5  6  1  1
  5  7  1  0
  7  8  2  0
  7  9  1  0
  9 10  2  0
 10 11  1  0
 11 12  1  6
 11 13  1  0
 13 14  2  0
 14 15  1  0
 14 16  1  0
 16 17  2  0
 16 18  1  0
 18 19  1  6
 18 20  1  0
 20 21  2  0
 21 22  1  0
 22 23  1  0
 23 24  1  0
 24 25  1  0
 25 26  2  0
 26 27  1  0
 27 28  1  0
 23 29  1  0
 29 30  1  1
 29 31  1  0
 31 32  1  0
 32 33  1  0
 33 34  2  0
 33 35  1  0
 35 36  1  0
 35 37  1  0
 31 38  1  0
 38 39  1  0
 39 40  1  0
 40 41  1  0
 40 42  2  0
 38 43  1  0
 13  5  1  0
 43 18  1  0
 43 11  1  0
 29 20  1  0
 28 24  2  0
  1 44  1  0
  1 45  1  0
  1 46  1  0
  6 47  1  0
  6 48  1  0
  6 49  1  0
  9 50  1  0
 10 51  1  0
 12 52  1  0
 12 53  1  0
 12 54  1  0
 15 55  1  0
 19 56  1  0
 19 57  1  0
 19 58  1  0
 21 59  1  0
 22 60  1  0
 22 61  1  0
 23 62  1  6
 25 63  1  0
 26 64  1  0
 28 65  1  0
 30 66  1  0
 30 67  1  0
 30 68  1  0
 31 69  1  6
 35 70  1  0
 36 71  1  0
 36 72  1  0
 36 73  1  0
 37 74  1  0
 37 75  1  0
 37 76  1  0
 38 77  1  6
 41 78  1  0
 41 79  1  0
 41 80  1  0
 43 81  1  1
M  END

     RDKit          3D

 86 90  0  0  0  0  0  0  0  0999 V2000
    5.9090    4.8358    0.8283 C   0  0  0  0  0  0  0  0  0  0  0  0
    5.3228    3.6716    0.2602 O   0  0  0  0  0  0  0  0  0  0  0  0
    5.9012    2.4025    0.3838 C   0  0  0  0  0  0  0  0  0  0  0  0
    6.9831    2.2612    1.0262 O   0  0  0  0  0  0  0  0  0  0  0  0
    5.2401    1.2193   -0.3028 C   0  0  1  0  0  0  0  0  0  0  0  0
    5.3868    1.4512   -1.8240 C   0  0  0  0  0  0  0  0  0  0  0  0
    5.9400   -0.1123    0.1053 C   0  0  0  0  0  0  0  0  0  0  0  0
    5.1664   -1.3807   -0.3148 C   0  0  0  0  0  0  0  0  0  0  0  0
    3.7005   -1.3841    0.2082 C   0  0  2  0  0  0  0  0  0  0  0  0
    3.6991   -1.4655    1.7407 C   0  0  0  0  0  0  0  0  0  0  0  0
    4.7012   -1.9239    2.3588 O   0  0  0  0  0  0  0  0  0  0  0  0
    2.5702   -1.1419    2.4792 O   0  0  0  0  0  0  0  0  0  0  0  0
    2.9789   -2.6484   -0.3413 C   0  0  0  0  0  0  0  0  0  0  0  0
    1.4274   -2.5947   -0.2466 C   0  0  0  0  0  0  0  0  0  0  0  0
    0.7356   -1.3032   -0.8423 C   0  0  2  0  0  0  0  0  0  0  0  0
    1.0649   -1.2875   -2.3711 C   0  0  0  0  0  0  0  0  0  0  0  0
    1.4993   -0.1488   -0.1341 C   0  0  0  0  0  0  0  0  0  0  0  0
    0.9732    0.4746    0.9419 C   0  0  0  0  0  0  0  0  0  0  0  0
   -0.3213    0.0336    1.5211 C   0  0  0  0  0  0  0  0  0  0  0  0
   -1.3274   -0.1060    0.3775 C   0  0  2  0  0  0  0  0  0  0  0  0
   -2.8731   -0.0236    0.8064 C   0  0  1  0  0  0  0  0  0  0  0  0
   -3.1498   -1.0067    1.9972 C   0  0  0  0  0  0  0  0  0  0  0  0
   -3.1085    1.4681    1.2809 C   0  0  0  0  0  0  0  0  0  0  0  0
   -4.5351    2.0642    1.2129 C   0  0  2  0  0  0  0  0  0  0  0  0
   -5.3430    1.8338    2.3467 O   0  0  0  0  0  0  0  0  0  0  0  0
   -5.2648    1.6940   -0.0841 C   0  0  2  0  0  0  0  0  0  0  0  0
   -6.5750    2.2162   -0.0266 O   0  0  0  0  0  0  0  0  0  0  0  0
   -5.2892    0.1627   -0.3679 C   0  0  1  0  0  0  0  0  0  0  0  0
   -6.1057   -0.5795    0.7295 C   0  0  0  0  0  0  0  0  0  0  0  0
   -6.0595   -0.0614   -1.7181 C   0  0  0  0  0  0  0  0  0  0  0  0
   -5.8942   -1.3551   -2.2402 O   0  0  0  0  0  0  0  0  0  0  0  0
   -3.8062   -0.3947   -0.4327 C   0  0  1  0  0  0  0  0  0  0  0  0
   -3.0626   -0.1050   -1.7622 C   0  0  0  0  0  0  0  0  0  0  0  0
   -1.7496   -0.9272   -1.9321 C   0  0  0  0  0  0  0  0  0  0  0  0
   -0.9160   -1.2509   -0.6153 C   0  0  1  0  0  0  0  0  0  0  0  0
   -1.3980   -2.6446   -0.0955 C   0  0  0  0  0  0  0  0  0  0  0  0
    3.0173   -0.0934   -0.3530 C   0  0  1  0  0  0  0  0  0  0  0  0
    3.7456    1.1873    0.1285 C   0  0  0  0  0  0  0  0  0  0  0  0
    5.2712    5.7139    0.5943 H   0  0  0  0  0  0  0  0  0  0  0  0
    5.9841    4.7266    1.9303 H   0  0  0  0  0  0  0  0  0  0  0  0
    6.9191    4.9989    0.3967 H   0  0  0  0  0  0  0  0  0  0  0  0
    4.8140    2.3493   -2.1404 H   0  0  0  0  0  0  0  0  0  0  0  0
    6.4535    1.6102   -2.0884 H   0  0  0  0  0  0  0  0  0  0  0  0
    5.0266    0.5933   -2.4215 H   0  0  0  0  0  0  0  0  0  0  0  0
    6.9604   -0.1566   -0.3383 H   0  0  0  0  0  0  0  0  0  0  0  0
    6.0771   -0.1351    1.2090 H   0  0  0  0  0  0  0  0  0  0  0  0
    5.7085   -2.2787    0.0554 H   0  0  0  0  0  0  0  0  0  0  0  0
    5.1781   -1.4572   -1.4243 H   0  0  0  0  0  0  0  0  0  0  0  0
    2.5624   -1.2185    3.4881 H   0  0  0  0  0  0  0  0  0  0  0  0
    3.3268   -3.5461    0.2214 H   0  0  0  0  0  0  0  0  0  0  0  0
    3.2786   -2.8541   -1.3869 H   0  0  0  0  0  0  0  0  0  0  0  0
    1.1794   -2.6983    0.8302 H   0  0  0  0  0  0  0  0  0  0  0  0
    1.0613   -3.5060   -0.7695 H   0  0  0  0  0  0  0  0  0  0  0  0
    0.4252   -2.0076   -2.9224 H   0  0  0  0  0  0  0  0  0  0  0  0
    2.0948   -1.5862   -2.6221 H   0  0  0  0  0  0  0  0  0  0  0  0
    0.9571   -0.2648   -2.7859 H   0  0  0  0  0  0  0  0  0  0  0  0
    1.5092    1.2464    1.4755 H   0  0  0  0  0  0  0  0  0  0  0  0
   -0.6385    0.7836    2.2714 H   0  0  0  0  0  0  0  0  0  0  0  0
   -0.1560   -0.9314    2.0394 H   0  0  0  0  0  0  0  0  0  0  0  0
   -1.1487    0.8157   -0.2286 H   0  0  0  0  0  0  0  0  0  0  0  0
   -3.6181   -0.5088    2.8664 H   0  0  0  0  0  0  0  0  0  0  0  0
   -3.8076   -1.8535    1.7157 H   0  0  0  0  0  0  0  0  0  0  0  0
   -2.2399   -1.4801    2.4039 H   0  0  0  0  0  0  0  0  0  0  0  0
   -2.5001    2.1586    0.6562 H   0  0  0  0  0  0  0  0  0  0  0  0
   -2.7165    1.6149    2.3099 H   0  0  0  0  0  0  0  0  0  0  0  0
   -4.4016    3.1706    1.1777 H   0  0  0  0  0  0  0  0  0  0  0  0
   -4.8499    1.2863    3.0147 H   0  0  0  0  0  0  0  0  0  0  0  0
   -4.7066    2.1942   -0.9148 H   0  0  0  0  0  0  0  0  0  0  0  0
   -6.8097    2.5398   -0.9348 H   0  0  0  0  0  0  0  0  0  0  0  0
   -5.6890   -0.4567    1.7411 H   0  0  0  0  0  0  0  0  0  0  0  0
   -6.1401   -1.6733    0.5410 H   0  0  0  0  0  0  0  0  0  0  0  0
   -7.1536   -0.2022    0.7696 H   0  0  0  0  0  0  0  0  0  0  0  0
   -5.7116    0.6597   -2.4871 H   0  0  0  0  0  0  0  0  0  0  0  0
   -7.1465    0.1443   -1.5955 H   0  0  0  0  0  0  0  0  0  0  0  0
   -6.3846   -1.9840   -1.6447 H   0  0  0  0  0  0  0  0  0  0  0  0
   -3.9710   -1.4823   -0.4758 H   0  0  0  0  0  0  0  0  0  0  0  0
   -3.6828   -0.3307   -2.6531 H   0  0  0  0  0  0  0  0  0  0  0  0
   -2.8379    0.9823   -1.8124 H   0  0  0  0  0  0  0  0  0  0  0  0
   -1.1744   -0.2961   -2.6368 H   0  0  0  0  0  0  0  0  0  0  0  0
   -1.9803   -1.8665   -2.4779 H   0  0  0  0  0  0  0  0  0  0  0  0
   -0.9880   -2.8778    0.9062 H   0  0  0  0  0  0  0  0  0  0  0  0
   -1.1086   -3.4378   -0.8128 H   0  0  0  0  0  0  0  0  0  0  0  0
   -2.4794   -2.7732   -0.0054 H   0  0  0  0  0  0  0  0  0  0  0  0
    3.1515   -0.0839   -1.4474 H   0  0  0  0  0  0  0  0  0  0  0  0
    3.2129    2.0777   -0.2760 H   0  0  0  0  0  0  0  0  0  0  0  0
    3.7053    1.2439    1.2366 H   0  0  0  0  0  0  0  0  0  0  0  0
  1  2  1  0
  2  3  1  0
  3  4  2  0
  3  5  1  0
  5  6  1  6
  5  7  1  0
  7  8  1  0
  8  9  1  0
  9 10  1  1
 10 11  2  0
 10 12  1  0
  9 13  1  0
 13 14  1  0
 14 15  1  0
 15 16  1  6
 15 17  1  0
 17 18  2  0
 18 19  1  0
 19 20  1  0
 20 21  1  0
 21 22  1  1
 21 23  1  0
 23 24  1  0
 24 25  1  0
 24 26  1  0
 26 27  1  0
 26 28  1  0
 28 29  1  1
 28 30  1  0
 30 31  1  0
 28 32  1  0
 32 33  1  0
 33 34  1  0
 34 35  1  0
 35 36  1  1
 17 37  1  0
 37 38  1  0
 38  5  1  0
 37  9  1  0
 35 15  1  0
 35 20  1  0
 32 21  1  0
  1 39  1  0
  1 40  1  0
  1 41  1  0
  6 42  1  0
  6 43  1  0
  6 44  1  0
  7 45  1  0
  7 46  1  0
  8 47  1  0
  8 48  1  0
 12 49  1  0
 13 50  1  0
 13 51  1  0
 14 52  1  0
 14 53  1  0
 16 54  1  0
 16 55  1  0
 16 56  1  0
 18 57  1  0
 19 58  1  0
 19 59  1  0
 20 60  1  6
 22 61  1  0
 22 62  1  0
 22 63  1  0
 23 64  1  0
 23 65  1  0
 24 66  1  6
 25 67  1  0
 26 68  1  6
 27 69  1  0
 29 70  1  0
 29 71  1  0
 29 72  1  0
 30 73  1  0
 30 74  1  0
 31 75  1  0
 32 76  1  1
 33 77  1  0
 33 78  1  0
 34 79  1  0
 34 80  1  0
 36 81  1  0
 36 82  1  0
 36 83  1  0
 37 84  1  6
 38 85  1  0
 38 86  1  0
M  END

     RDKit          3D

 83 87  0  0  0  0  0  0  0  0999 V2000
    5.8687   -0.2637    2.1013 C   0  0  0  0  0  0  0  0  0  0  0  0
    5.6714   -0.8565    0.6819 C   0  0  2  0  0  0  0  0  0  0  0  0
    6.4532   -2.1603    0.6350 C   0  0  0  0  0  0  0  0  0  0  0  0
    7.4473   -2.3006   -0.1335 O   0  0  0  0  0  0  0  0  0  0  0  0
    6.0849   -3.2130    1.4741 O   0  0  0  0  0  0  0  0  0  0  0  0
    6.1967    0.1287   -0.3971 C   0  0  0  0  0  0  0  0  0  0  0  0
    5.3181    1.3804   -0.5403 C   0  0  0  0  0  0  0  0  0  0  0  0
    3.8473    1.0286   -0.8826 C   0  0  2  0  0  0  0  0  0  0  0  0
    3.7942    0.4418   -2.2931 C   0  0  0  0  0  0  0  0  0  0  0  0
    3.2529   -0.6741   -2.5215 O   0  0  0  0  0  0  0  0  0  0  0  0
    4.3322    1.1620   -3.3571 O   0  0  0  0  0  0  0  0  0  0  0  0
    3.0209    2.3364   -0.8515 C   0  0  0  0  0  0  0  0  0  0  0  0
    1.5271    2.0803   -1.1226 C   0  0  0  0  0  0  0  0  0  0  0  0
    0.8486    1.0379   -0.1580 C   0  0  2  0  0  0  0  0  0  0  0  0
    0.7600    1.6722    1.2820 C   0  0  0  0  0  0  0  0  0  0  0  0
    1.7730   -0.1968   -0.0353 C   0  0  0  0  0  0  0  0  0  0  0  0
    1.2593   -1.4449    0.1137 C   0  0  0  0  0  0  0  0  0  0  0  0
   -0.2000   -1.7920    0.0035 C   0  0  0  0  0  0  0  0  0  0  0  0
   -1.1351   -0.5737    0.1744 C   0  0  2  0  0  0  0  0  0  0  0  0
   -2.7101   -0.9280    0.1474 C   0  0  1  0  0  0  0  0  0  0  0  0
   -2.9750   -2.1114   -0.8319 C   0  0  0  0  0  0  0  0  0  0  0  0
   -3.0804   -1.3949    1.5985 C   0  0  0  0  0  0  0  0  0  0  0  0
   -4.5730   -1.5539    1.9047 C   0  0  2  0  0  0  0  0  0  0  0  0
   -5.1284   -2.6618    1.2476 O   0  0  0  0  0  0  0  0  0  0  0  0
   -5.3410   -0.2545    1.5993 C   0  0  2  0  0  0  0  0  0  0  0  0
   -6.7100   -0.4373    1.8775 O   0  0  0  0  0  0  0  0  0  0  0  0
   -5.1475    0.2903    0.1489 C   0  0  1  0  0  0  0  0  0  0  0  0
   -5.9769   -0.5535   -0.8731 C   0  0  0  0  0  0  0  0  0  0  0  0
   -5.8097    1.7123    0.1186 C   0  0  0  0  0  0  0  0  0  0  0  0
   -5.5918    2.3684   -1.1077 O   0  0  0  0  0  0  0  0  0  0  0  0
   -3.5914    0.3355   -0.2552 C   0  0  1  0  0  0  0  0  0  0  0  0
   -2.8556    1.6176    0.2243 C   0  0  0  0  0  0  0  0  0  0  0  0
   -1.6011    1.8594   -0.6200 C   0  0  0  0  0  0  0  0  0  0  0  0
   -0.6183    0.6330   -0.7029 C   0  0  1  0  0  0  0  0  0  0  0  0
   -0.5589    0.1936   -2.2031 C   0  0  0  0  0  0  0  0  0  0  0  0
    3.2759    0.0720    0.2061 C   0  0  1  0  0  0  0  0  0  0  0  0
    4.1749   -1.1827    0.4142 C   0  0  0  0  0  0  0  0  0  0  0  0
    5.2915    0.6657    2.2569 H   0  0  0  0  0  0  0  0  0  0  0  0
    6.9419   -0.0378    2.2782 H   0  0  0  0  0  0  0  0  0  0  0  0
    5.5412   -0.9889    2.8758 H   0  0  0  0  0  0  0  0  0  0  0  0
    6.6006   -4.0848    1.4654 H   0  0  0  0  0  0  0  0  0  0  0  0
    6.2397   -0.3816   -1.3862 H   0  0  0  0  0  0  0  0  0  0  0  0
    7.2340    0.4467   -0.1522 H   0  0  0  0  0  0  0  0  0  0  0  0
    5.7535    2.0297   -1.3345 H   0  0  0  0  0  0  0  0  0  0  0  0
    5.3690    1.9732    0.3991 H   0  0  0  0  0  0  0  0  0  0  0  0
    4.2961    0.7979   -4.3035 H   0  0  0  0  0  0  0  0  0  0  0  0
    3.4033    3.0447   -1.6190 H   0  0  0  0  0  0  0  0  0  0  0  0
    3.1417    2.8429    0.1266 H   0  0  0  0  0  0  0  0  0  0  0  0
    0.9940    3.0529   -1.0799 H   0  0  0  0  0  0  0  0  0  0  0  0
    1.4803    1.7512   -2.1756 H   0  0  0  0  0  0  0  0  0  0  0  0
    1.1870    1.0050    2.0659 H   0  0  0  0  0  0  0  0  0  0  0  0
   -0.2749    1.8716    1.6211 H   0  0  0  0  0  0  0  0  0  0  0  0
    1.2883    2.6472    1.3571 H   0  0  0  0  0  0  0  0  0  0  0  0
    1.9013   -2.3075    0.2396 H   0  0  0  0  0  0  0  0  0  0  0  0
   -0.3445   -2.2810   -0.9803 H   0  0  0  0  0  0  0  0  0  0  0  0
   -0.4310   -2.5498    0.7837 H   0  0  0  0  0  0  0  0  0  0  0  0
   -0.9271   -0.2560    1.2164 H   0  0  0  0  0  0  0  0  0  0  0  0
   -4.0315   -2.3695   -0.9274 H   0  0  0  0  0  0  0  0  0  0  0  0
   -2.4858   -3.0436   -0.4779 H   0  0  0  0  0  0  0  0  0  0  0  0
   -2.6184   -1.9029   -1.8552 H   0  0  0  0  0  0  0  0  0  0  0  0
   -2.7042   -0.6579    2.3452 H   0  0  0  0  0  0  0  0  0  0  0  0
   -2.5671   -2.3537    1.8367 H   0  0  0  0  0  0  0  0  0  0  0  0
   -4.6666   -1.7258    3.0044 H   0  0  0  0  0  0  0  0  0  0  0  0
   -4.7519   -3.4711    1.6804 H   0  0  0  0  0  0  0  0  0  0  0  0
   -4.9369    0.5158    2.2991 H   0  0  0  0  0  0  0  0  0  0  0  0
   -6.8008   -0.4873    2.8677 H   0  0  0  0  0  0  0  0  0  0  0  0
   -5.9707   -1.6342   -0.6846 H   0  0  0  0  0  0  0  0  0  0  0  0
   -5.6420   -0.3699   -1.9135 H   0  0  0  0  0  0  0  0  0  0  0  0
   -7.0553   -0.2963   -0.8303 H   0  0  0  0  0  0  0  0  0  0  0  0
   -5.4263    2.3525    0.9421 H   0  0  0  0  0  0  0  0  0  0  0  0
   -6.9039    1.6513    0.3232 H   0  0  0  0  0  0  0  0  0  0  0  0
   -6.2829    2.0346   -1.7389 H   0  0  0  0  0  0  0  0  0  0  0  0
   -3.5738    0.3980   -1.3677 H   0  0  0  0  0  0  0  0  0  0  0  0
   -2.6061    1.5447    1.3012 H   0  0  0  0  0  0  0  0  0  0  0  0
   -3.4462    2.5400    0.0999 H   0  0  0  0  0  0  0  0  0  0  0  0
   -1.9476    2.1647   -1.6309 H   0  0  0  0  0  0  0  0  0  0  0  0
   -1.1082    2.7737   -0.2370 H   0  0  0  0  0  0  0  0  0  0  0  0
   -1.5186   -0.2306   -2.5401 H   0  0  0  0  0  0  0  0  0  0  0  0
   -0.3979    1.0514   -2.8864 H   0  0  0  0  0  0  0  0  0  0  0  0
    0.2510   -0.5404   -2.3925 H   0  0  0  0  0  0  0  0  0  0  0  0
    3.3153    0.6181    1.1714 H   0  0  0  0  0  0  0  0  0  0  0  0
    3.7868   -1.7588    1.2861 H   0  0  0  0  0  0  0  0  0  0  0  0
    4.1011   -1.8406   -0.4777 H   0  0  0  0  0  0  0  0  0  0  0  0
  2  1  1  1
  2  3  1  0
  3  4  2  0
  3  5  1  0
  2  6  1  0
  6  7  1  0
  7  8  1  0
  8  9  1  6
  9 10  2  0
  9 11  1  0
  8 12  1  0
 12 13  1  0
 13 14  1  0
 14 15  1  1
 14 16  1  0
 16 17  2  0
 17 18  1  0
 18 19  1  0
 19 20  1  0
 20 21  1  6
 20 22  1  0
 22 23  1  0
 23 24  1  0
 23 25  1  0
 25 26  1  0
 25 27  1  0
 27 28  1  6
 27 29  1  0
 29 30  1  0
 27 31  1  0
 31 32  1  0
 32 33  1  0
 33 34  1  0
 34 35  1  6
 16 36  1  0
 36 37  1  0
 37  2  1  0
 36  8  1  0
 34 14  1  0
 34 19  1  0
 31 20  1  0
  1 38  1  0
  1 39  1  0
  1 40  1  0
  5 41  1  0
  6 42  1  0
  6 43  1  0
  7 44  1  0
  7 45  1  0
 11 46  1  0
 12 47  1  0
 12 48  1  0
 13 49  1  0
 13 50  1  0
 15 51  1  0
 15 52  1  0
 15 53  1  0
 17 54  1  0
 18 55  1  0
 18 56  1  0
 19 57  1  1
 21 58  1  0
 21 59  1  0
 21 60  1  0
 22 61  1  0
 22 62  1  0
 23 63  1  1
 24 64  1  0
 25 65  1  1
 26 66  1  0
 28 67  1  0
 28 68  1  0
 28 69  1  0
 29 70  1  0
 29 71  1  0
 30 72  1  0
 31 73  1  6
 32 74  1  0
 32 75  1  0
 33 76  1  0
 33 77  1  0
 35 78  1  0
 35 79  1  0
 35 80  1  0
 36 81  1  1
 37 82  1  0
 37 83  1  0
M  END

     RDKit          3D

 84 88  0  0  0  0  0  0  0  0999 V2000
    7.8532    2.7602    0.9028 C   0  0  0  0  0  0  0  0  0  0  0  0
    7.2046    1.7453    0.1378 O   0  0  0  0  0  0  0  0  0  0  0  0
    5.8958    1.8830   -0.3390 C   0  0  0  0  0  0  0  0  0  0  0  0
    5.3253    3.0123   -0.3091 O   0  0  0  0  0  0  0  0  0  0  0  0
    5.1746    0.6713   -0.9136 C   0  0  1  0  0  0  0  0  0  0  0  0
    5.6277    0.5181   -2.3853 C   0  0  0  0  0  0  0  0  0  0  0  0
    5.5975   -0.5802   -0.1003 C   0  0  0  0  0  0  0  0  0  0  0  0
    4.7128   -1.8070   -0.3575 C   0  0  0  0  0  0  0  0  0  0  0  0
    3.2247   -1.5091   -0.0536 C   0  0  2  0  0  0  0  0  0  0  0  0
    3.0909   -1.1698    1.4341 C   0  0  0  0  0  0  0  0  0  0  0  0
    2.4673   -0.1534    1.8173 O   0  0  0  0  0  0  0  0  0  0  0  0
    3.6256   -2.0343    2.3892 O   0  0  0  0  0  0  0  0  0  0  0  0
    2.3974   -2.7708   -0.3601 C   0  0  0  0  0  0  0  0  0  0  0  0
    0.9134   -2.5625   -0.0292 C   0  0  0  0  0  0  0  0  0  0  0  0
    0.2467   -1.3252   -0.7375 C   0  0  2  0  0  0  0  0  0  0  0  0
   -0.1324   -1.8083   -2.1740 C   0  0  0  0  0  0  0  0  0  0  0  0
    1.2168   -0.1417   -0.9281 C   0  0  0  0  0  0  0  0  0  0  0  0
    0.6748    1.0673   -1.2523 C   0  0  0  0  0  0  0  0  0  0  0  0
   -0.8104    1.3172   -1.4308 C   0  0  0  0  0  0  0  0  0  0  0  0
   -1.7644    0.3038   -0.7109 C   0  0  2  0  0  0  0  0  0  0  0  0
   -3.0472    0.9477   -0.0006 C   0  0  1  0  0  0  0  0  0  0  0  0
   -2.6303    2.1742    0.8875 C   0  0  0  0  0  0  0  0  0  0  0  0
   -3.9771    1.4296   -1.1685 C   0  0  0  0  0  0  0  0  0  0  0  0
   -5.3863    1.8239   -0.7440 C   0  0  0  0  0  0  0  0  0  0  0  0
   -6.0961    0.6504   -0.0594 C   0  0  2  0  0  0  0  0  0  0  0  0
   -7.4114    1.0442    0.2484 O   0  0  0  0  0  0  0  0  0  0  0  0
   -5.3401    0.1866    1.2193 C   0  0  0  0  0  0  0  0  0  0  0  0
   -5.4453    1.2765    2.3316 C   0  0  0  0  0  0  0  0  0  0  0  0
   -6.0682   -1.0580    1.8007 C   0  0  0  0  0  0  0  0  0  0  0  0
   -3.8121   -0.1364    0.8966 C   0  0  1  0  0  0  0  0  0  0  0  0
   -3.5397   -1.5633    0.3442 C   0  0  0  0  0  0  0  0  0  0  0  0
   -2.0393   -1.9539    0.4281 C   0  0  0  0  0  0  0  0  0  0  0  0
   -1.0195   -0.7987    0.1124 C   0  0  1  0  0  0  0  0  0  0  0  0
   -0.5238   -0.1850    1.4696 C   0  0  0  0  0  0  0  0  0  0  0  0
    2.7470   -0.3726   -1.0125 C   0  0  1  0  0  0  0  0  0  0  0  0
    3.6263    0.9072   -0.8340 C   0  0  0  0  0  0  0  0  0  0  0  0
    8.8882    2.4352    1.1281 H   0  0  0  0  0  0  0  0  0  0  0  0
    7.3038    2.9138    1.8578 H   0  0  0  0  0  0  0  0  0  0  0  0
    7.8859    3.7144    0.3308 H   0  0  0  0  0  0  0  0  0  0  0  0
    6.7240    0.3629   -2.4360 H   0  0  0  0  0  0  0  0  0  0  0  0
    5.3809    1.4336   -2.9683 H   0  0  0  0  0  0  0  0  0  0  0  0
    5.1336   -0.3482   -2.8751 H   0  0  0  0  0  0  0  0  0  0  0  0
    6.6522   -0.8569   -0.3374 H   0  0  0  0  0  0  0  0  0  0  0  0
    5.5787   -0.3499    0.9910 H   0  0  0  0  0  0  0  0  0  0  0  0
    4.8349   -2.1446   -1.4119 H   0  0  0  0  0  0  0  0  0  0  0  0
    5.0756   -2.6489    0.2748 H   0  0  0  0  0  0  0  0  0  0  0  0
    3.4537   -1.8727    3.3722 H   0  0  0  0  0  0  0  0  0  0  0  0
    2.7727   -3.6315    0.2333 H   0  0  0  0  0  0  0  0  0  0  0  0
    2.5074   -3.0528   -1.4302 H   0  0  0  0  0  0  0  0  0  0  0  0
    0.8273   -2.5200    1.0717 H   0  0  0  0  0  0  0  0  0  0  0  0
    0.3719   -3.4956   -0.3033 H   0  0  0  0  0  0  0  0  0  0  0  0
   -0.4881   -0.9943   -2.8334 H   0  0  0  0  0  0  0  0  0  0  0  0
   -0.9090   -2.5979   -2.1696 H   0  0  0  0  0  0  0  0  0  0  0  0
    0.7535   -2.2314   -2.6882 H   0  0  0  0  0  0  0  0  0  0  0  0
    1.2963    1.9231   -1.4797 H   0  0  0  0  0  0  0  0  0  0  0  0
   -1.0137    1.2903   -2.5255 H   0  0  0  0  0  0  0  0  0  0  0  0
   -1.0194    2.3748   -1.1670 H   0  0  0  0  0  0  0  0  0  0  0  0
   -2.1748   -0.2790   -1.5586 H   0  0  0  0  0  0  0  0  0  0  0  0
   -1.5380    2.3381    0.9185 H   0  0  0  0  0  0  0  0  0  0  0  0
   -3.0916    3.1228    0.5431 H   0  0  0  0  0  0  0  0  0  0  0  0
   -2.8935    2.0408    1.9563 H   0  0  0  0  0  0  0  0  0  0  0  0
   -3.5126    2.2944   -1.6938 H   0  0  0  0  0  0  0  0  0  0  0  0
   -4.0964    0.6295   -1.9342 H   0  0  0  0  0  0  0  0  0  0  0  0
   -5.3725    2.7325   -0.1108 H   0  0  0  0  0  0  0  0  0  0  0  0
   -5.9614    2.0941   -1.6581 H   0  0  0  0  0  0  0  0  0  0  0  0
   -6.1182   -0.1938   -0.7885 H   0  0  0  0  0  0  0  0  0  0  0  0
   -7.9929    0.2492    0.1434 H   0  0  0  0  0  0  0  0  0  0  0  0
   -4.8591    0.9806    3.2294 H   0  0  0  0  0  0  0  0  0  0  0  0
   -6.4955    1.4217    2.6579 H   0  0  0  0  0  0  0  0  0  0  0  0
   -5.0944    2.2698    2.0043 H   0  0  0  0  0  0  0  0  0  0  0  0
   -6.2375   -1.8310    1.0205 H   0  0  0  0  0  0  0  0  0  0  0  0
   -7.0723   -0.7932    2.1991 H   0  0  0  0  0  0  0  0  0  0  0  0
   -5.4840   -1.4970    2.6396 H   0  0  0  0  0  0  0  0  0  0  0  0
   -3.3511   -0.1777    1.8990 H   0  0  0  0  0  0  0  0  0  0  0  0
   -3.9009   -1.6357   -0.7055 H   0  0  0  0  0  0  0  0  0  0  0  0
   -4.0752   -2.3449    0.9188 H   0  0  0  0  0  0  0  0  0  0  0  0
   -1.8408   -2.3701    1.4403 H   0  0  0  0  0  0  0  0  0  0  0  0
   -1.9076   -2.8104   -0.2563 H   0  0  0  0  0  0  0  0  0  0  0  0
    0.1670    0.6671    1.3148 H   0  0  0  0  0  0  0  0  0  0  0  0
   -1.3230    0.2177    2.1021 H   0  0  0  0  0  0  0  0  0  0  0  0
   -0.0290   -0.9222    2.1271 H   0  0  0  0  0  0  0  0  0  0  0  0
    2.9218   -0.7187   -2.0552 H   0  0  0  0  0  0  0  0  0  0  0  0
    3.3831    1.6339   -1.6341 H   0  0  0  0  0  0  0  0  0  0  0  0
    3.3614    1.3897    0.1273 H   0  0  0  0  0  0  0  0  0  0  0  0
  1  2  1  0
  2  3  1  0
  3  4  2  0
  3  5  1  0
  5  6  1  6
  5  7  1  0
  7  8  1  0
  8  9  1  0
  9 10  1  1
 10 11  2  0
 10 12  1  0
  9 13  1  0
 13 14  1  0
 14 15  1  0
 15 16  1  6
 15 17  1  0
 17 18  2  0
 18 19  1  0
 19 20  1  0
 20 21  1  0
 21 22  1  1
 21 23  1  0
 23 24  1  0
 24 25  1  0
 25 26  1  0
 25 27  1  0
 27 28  1  0
 27 29  1  0
 27 30  1  0
 30 31  1  0
 31 32  1  0
 32 33  1  0
 33 34  1  1
 17 35  1  0
 35 36  1  0
 36  5  1  0
 35  9  1  0
 33 15  1  0
 33 20  1  0
 30 21  1  0
  1 37  1  0
  1 38  1  0
  1 39  1  0
  6 40  1  0
  6 41  1  0
  6 42  1  0
  7 43  1  0
  7 44  1  0
  8 45  1  0
  8 46  1  0
 12 47  1  0
 13 48  1  0
 13 49  1  0
 14 50  1  0
 14 51  1  0
 16 52  1  0
 16 53  1  0
 16 54  1  0
 18 55  1  0
 19 56  1  0
 19 57  1  0
 20 58  1  6
 22 59  1  0
 22 60  1  0
 22 61  1  0
 23 62  1  0
 23 63  1  0
 24 64  1  0
 24 65  1  0
 25 66  1  6
 26 67  1  0
 28 68  1  0
 28 69  1  0
 28 70  1  0
 29 71  1  0
 29 72  1  0
 29 73  1  0
 30 74  1  1
 31 75  1  0
 31 76  1  0
 32 77  1  0
 32 78  1  0
 34 79  1  0
 34 80  1  0
 34 81  1  0
 35 82  1  6
 36 83  1  0
 36 84  1  0
M  END

     RDKit          3D

 81 85  0  0  0  0  0  0  0  0999 V2000
    6.1306   -0.5873    0.5874 C   0  0  0  0  0  0  0  0  0  0  0  0
    5.2744    0.4076   -0.2506 C   0  0  0  0  0  0  0  0  0  0  0  0
    5.9030    1.8004    0.0205 C   0  0  0  0  0  0  0  0  0  0  0  0
    5.4585    0.1157   -1.7736 C   0  0  1  0  0  0  0  0  0  0  0  0
    6.8151   -0.0169   -2.0888 O   0  0  0  0  0  0  0  0  0  0  0  0
    4.7349   -1.1621   -2.2225 C   0  0  0  0  0  0  0  0  0  0  0  0
    3.2428   -1.1127   -1.8768 C   0  0  0  0  0  0  0  0  0  0  0  0
    2.9069   -0.8767   -0.3547 C   0  0  1  0  0  0  0  0  0  0  0  0
    3.3169   -2.1758    0.4505 C   0  0  0  0  0  0  0  0  0  0  0  0
    3.7510    0.3614    0.2089 C   0  0  2  0  0  0  0  0  0  0  0  0
    2.9824    1.6654   -0.0049 C   0  0  0  0  0  0  0  0  0  0  0  0
    1.5936    1.7120    0.6747 C   0  0  0  0  0  0  0  0  0  0  0  0
    0.7692    0.3704    0.7923 C   0  0  2  0  0  0  0  0  0  0  0  0
    1.0784   -0.2554    2.1997 C   0  0  0  0  0  0  0  0  0  0  0  0
    1.3098   -0.5992   -0.3096 C   0  0  2  0  0  0  0  0  0  0  0  0
    0.4527   -1.8979   -0.3670 C   0  0  0  0  0  0  0  0  0  0  0  0
   -0.9795   -1.6087   -0.5723 C   0  0  0  0  0  0  0  0  0  0  0  0
   -1.6295   -0.6126    0.0572 C   0  0  0  0  0  0  0  0  0  0  0  0
   -3.1761   -0.6573    0.0298 C   0  0  2  0  0  0  0  0  0  0  0  0
   -3.7368   -0.2054   -1.3655 C   0  0  0  0  0  0  0  0  0  0  0  0
   -5.2425    0.2287   -1.3998 C   0  0  1  0  0  0  0  0  0  0  0  0
   -5.3396    1.7726   -1.5499 C   0  0  0  0  0  0  0  0  0  0  0  0
   -5.9487   -0.3802   -2.6181 C   0  0  0  0  0  0  0  0  0  0  0  0
   -5.2967   -0.5981   -3.6798 O   0  0  0  0  0  0  0  0  0  0  0  0
   -7.3353   -0.5616   -2.6127 O   0  0  0  0  0  0  0  0  0  0  0  0
   -5.9705   -0.2500   -0.1219 C   0  0  0  0  0  0  0  0  0  0  0  0
   -5.3197    0.3311    1.1341 C   0  0  0  0  0  0  0  0  0  0  0  0
   -3.8380   -0.1228    1.3481 C   0  0  1  0  0  0  0  0  0  0  0  0
   -3.8645   -1.2932    2.3576 C   0  0  0  0  0  0  0  0  0  0  0  0
   -2.9275   -1.4731    3.1800 O   0  0  0  0  0  0  0  0  0  0  0  0
   -4.8855   -2.2512    2.2587 O   0  0  0  0  0  0  0  0  0  0  0  0
   -3.0704    1.0915    1.9581 C   0  0  0  0  0  0  0  0  0  0  0  0
   -1.5384    0.9454    2.0080 C   0  0  0  0  0  0  0  0  0  0  0  0
   -0.8662    0.6124    0.6223 C   0  0  1  0  0  0  0  0  0  0  0  0
   -1.1942    1.8183   -0.3229 C   0  0  0  0  0  0  0  0  0  0  0  0
    5.9436   -1.6443    0.3530 H   0  0  0  0  0  0  0  0  0  0  0  0
    7.2221   -0.4251    0.3995 H   0  0  0  0  0  0  0  0  0  0  0  0
    5.9875   -0.4223    1.6802 H   0  0  0  0  0  0  0  0  0  0  0  0
    5.5044    2.5847   -0.6652 H   0  0  0  0  0  0  0  0  0  0  0  0
    6.9980    1.7909   -0.1728 H   0  0  0  0  0  0  0  0  0  0  0  0
    5.7566    2.1312    1.0788 H   0  0  0  0  0  0  0  0  0  0  0  0
    5.0127    0.9525   -2.3670 H   0  0  0  0  0  0  0  0  0  0  0  0
    7.1422    0.8424   -2.4754 H   0  0  0  0  0  0  0  0  0  0  0  0
    5.2415   -2.0599   -1.7944 H   0  0  0  0  0  0  0  0  0  0  0  0
    4.8258   -1.2569   -3.3335 H   0  0  0  0  0  0  0  0  0  0  0  0
    2.8217   -0.2946   -2.4880 H   0  0  0  0  0  0  0  0  0  0  0  0
    2.7837   -2.0601   -2.2219 H   0  0  0  0  0  0  0  0  0  0  0  0
    2.5200   -2.9147    0.6056 H   0  0  0  0  0  0  0  0  0  0  0  0
    4.0933   -2.7647   -0.0705 H   0  0  0  0  0  0  0  0  0  0  0  0
    3.7165   -1.9485    1.4702 H   0  0  0  0  0  0  0  0  0  0  0  0
    3.8041    0.2789    1.3068 H   0  0  0  0  0  0  0  0  0  0  0  0
    3.5307    2.5302    0.4216 H   0  0  0  0  0  0  0  0  0  0  0  0
    2.9097    1.8602   -1.0989 H   0  0  0  0  0  0  0  0  0  0  0  0
    1.6451    2.2324    1.6637 H   0  0  0  0  0  0  0  0  0  0  0  0
    1.0850    2.4438    0.0259 H   0  0  0  0  0  0  0  0  0  0  0  0
    0.9015    0.5013    3.0051 H   0  0  0  0  0  0  0  0  0  0  0  0
    2.1226   -0.5550    2.3236 H   0  0  0  0  0  0  0  0  0  0  0  0
    0.4443   -1.1368    2.3958 H   0  0  0  0  0  0  0  0  0  0  0  0
    1.0462   -0.0718   -1.2551 H   0  0  0  0  0  0  0  0  0  0  0  0
    0.4865   -2.4648    0.5824 H   0  0  0  0  0  0  0  0  0  0  0  0
    0.8025   -2.5851   -1.1671 H   0  0  0  0  0  0  0  0  0  0  0  0
   -1.5452   -2.3966   -1.0581 H   0  0  0  0  0  0  0  0  0  0  0  0
   -3.4440   -1.7400    0.0501 H   0  0  0  0  0  0  0  0  0  0  0  0
   -3.1133    0.5538   -1.8629 H   0  0  0  0  0  0  0  0  0  0  0  0
   -3.5739   -1.0679   -2.0614 H   0  0  0  0  0  0  0  0  0  0  0  0
   -5.1659    2.1045   -2.6048 H   0  0  0  0  0  0  0  0  0  0  0  0
   -6.3324    2.1592   -1.2361 H   0  0  0  0  0  0  0  0  0  0  0  0
   -4.5763    2.2740   -0.9302 H   0  0  0  0  0  0  0  0  0  0  0  0
   -7.8207   -0.9256   -3.4221 H   0  0  0  0  0  0  0  0  0  0  0  0
   -7.0368    0.0868   -0.1454 H   0  0  0  0  0  0  0  0  0  0  0  0
   -5.9909   -1.3578   -0.0666 H   0  0  0  0  0  0  0  0  0  0  0  0
   -5.4175    1.4520    1.0927 H   0  0  0  0  0  0  0  0  0  0  0  0
   -5.9574    0.0621    2.0044 H   0  0  0  0  0  0  0  0  0  0  0  0
   -4.8692   -3.0655    2.8799 H   0  0  0  0  0  0  0  0  0  0  0  0
   -3.3249    2.0347    1.4359 H   0  0  0  0  0  0  0  0  0  0  0  0
   -3.4316    1.2417    3.0059 H   0  0  0  0  0  0  0  0  0  0  0  0
   -1.3122    0.1737    2.7663 H   0  0  0  0  0  0  0  0  0  0  0  0
   -1.1014    1.8944    2.4113 H   0  0  0  0  0  0  0  0  0  0  0  0
   -0.9490    2.7977    0.1443 H   0  0  0  0  0  0  0  0  0  0  0  0
   -2.2593    1.9238   -0.5122 H   0  0  0  0  0  0  0  0  0  0  0  0
   -0.6865    1.7165   -1.2957 H   0  0  0  0  0  0  0  0  0  0  0  0
  1  2  1  0
  2  3  1  0
  2  4  1  0
  4  5  1  0
  4  6  1  0
  6  7  1  0
  7  8  1  0
  8  9  1  1
  8 10  1  0
 10 11  1  0
 11 12  1  0
 12 13  1  0
 13 14  1  1
 13 15  1  0
 15 16  1  0
 16 17  1  0
 17 18  2  0
 18 19  1  0
 19 20  1  0
 20 21  1  0
 21 22  1  6
 21 23  1  0
 23 24  2  0
 23 25  1  0
 21 26  1  0
 26 27  1  0
 27 28  1  0
 28 29  1  1
 29 30  2  0
 29 31  1  0
 28 32  1  0
 32 33  1  0
 33 34  1  0
 34 35  1  6
 10  2  1  0
 34 13  1  0
 15  8  1  0
 34 18  1  0
 28 19  1  0
  1 36  1  0
  1 37  1  0
  1 38  1  0
  3 39  1  0
  3 40  1  0
  3 41  1  0
  4 42  1  6
  5 43  1  0
  6 44  1  0
  6 45  1  0
  7 46  1  0
  7 47  1  0
  9 48  1  0
  9 49  1  0
  9 50  1  0
 10 51  1  1
 11 52  1  0
 11 53  1  0
 12 54  1  0
 12 55  1  0
 14 56  1  0
 14 57  1  0
 14 58  1  0
 15 59  1  6
 16 60  1  0
 16 61  1  0
 17 62  1  0
 19 63  1  1
 20 64  1  0
 20 65  1  0
 22 66  1  0
 22 67  1  0
 22 68  1  0
 25 69  1  0
 26 70  1  0
 26 71  1  0
 27 72  1  0
 27 73  1  0
 31 74  1  0
 32 75  1  0
 32 76  1  0
 33 77  1  0
 33 78  1  0
 35 79  1  0
 35 80  1  0
 35 81  1  0
M  END

     RDKit          3D

 44 46  0  0  0  0  0  0  0  0999 V2000
   -5.8351    0.9584    1.6101 C   0  0  0  0  0  0  0  0  0  0  0  0
   -4.4449    0.6140    1.1480 C   0  0  0  0  0  0  0  0  0  0  0  0
   -3.3551    1.3243    1.6802 C   0  0  0  0  0  0  0  0  0  0  0  0
   -2.0544    1.0276    1.2761 C   0  0  0  0  0  0  0  0  0  0  0  0
   -1.8106    0.0124    0.3366 C   0  0  0  0  0  0  0  0  0  0  0  0
   -0.4086   -0.2264   -0.1696 C   0  0  2  0  0  0  0  0  0  0  0  0
    0.4782   -0.3693    0.9470 O   0  0  0  0  0  0  0  0  0  0  0  0
    1.8576   -0.2393    0.7931 C   0  0  0  0  0  0  0  0  0  0  0  0
    2.7300   -0.6638    1.7973 C   0  0  0  0  0  0  0  0  0  0  0  0
    4.1110   -0.5457    1.6101 C   0  0  0  0  0  0  0  0  0  0  0  0
    4.6213   -0.0289    0.4065 C   0  0  0  0  0  0  0  0  0  0  0  0
    6.0720    0.0706    0.1668 C   0  0  0  0  0  0  0  0  0  0  0  0
    6.8990   -0.9669    0.0132 C   0  0  0  0  0  0  0  0  0  0  0  0
    6.5377   -2.4021    0.0916 C   0  0  0  0  0  0  0  0  0  0  0  0
    5.3712   -2.8136    0.3418 O   0  0  0  0  0  0  0  0  0  0  0  0
    3.7389    0.4225   -0.5825 C   0  0  0  0  0  0  0  0  0  0  0  0
    2.3607    0.3238   -0.3843 C   0  0  0  0  0  0  0  0  0  0  0  0
    1.4731    0.7788   -1.3592 O   0  0  0  0  0  0  0  0  0  0  0  0
    0.0733    0.9275   -1.0915 C   0  0  1  0  0  0  0  0  0  0  0  0
   -0.6745    0.9651   -2.4407 C   0  0  0  0  0  0  0  0  0  0  0  0
   -2.0165    1.3503   -2.2859 O   0  0  0  0  0  0  0  0  0  0  0  0
   -2.8936   -0.7108   -0.1898 C   0  0  0  0  0  0  0  0  0  0  0  0
   -4.2107   -0.4287    0.2169 C   0  0  0  0  0  0  0  0  0  0  0  0
   -5.3494   -1.2138   -0.3876 C   0  0  0  0  0  0  0  0  0  0  0  0
   -6.5251    1.0308    0.7484 H   0  0  0  0  0  0  0  0  0  0  0  0
   -6.1977    0.1756    2.3050 H   0  0  0  0  0  0  0  0  0  0  0  0
   -5.8647    1.9370    2.1381 H   0  0  0  0  0  0  0  0  0  0  0  0
   -3.5089    2.1201    2.4047 H   0  0  0  0  0  0  0  0  0  0  0  0
   -1.2371    1.5996    1.6965 H   0  0  0  0  0  0  0  0  0  0  0  0
   -0.3613   -1.1695   -0.7558 H   0  0  0  0  0  0  0  0  0  0  0  0
    2.3426   -1.1112    2.7084 H   0  0  0  0  0  0  0  0  0  0  0  0
    4.7773   -0.8814    2.3922 H   0  0  0  0  0  0  0  0  0  0  0  0
    6.4457    1.0533   -0.1258 H   0  0  0  0  0  0  0  0  0  0  0  0
    7.9339   -0.7533   -0.2517 H   0  0  0  0  0  0  0  0  0  0  0  0
    7.3359   -3.1262   -0.0265 H   0  0  0  0  0  0  0  0  0  0  0  0
    4.1204    0.8467   -1.5056 H   0  0  0  0  0  0  0  0  0  0  0  0
   -0.0731    1.8975   -0.5638 H   0  0  0  0  0  0  0  0  0  0  0  0
   -0.1644    1.6691   -3.1420 H   0  0  0  0  0  0  0  0  0  0  0  0
   -0.6364   -0.0448   -2.9142 H   0  0  0  0  0  0  0  0  0  0  0  0
   -2.0088    2.3032   -2.0006 H   0  0  0  0  0  0  0  0  0  0  0  0
   -2.7201   -1.4687   -0.9452 H   0  0  0  0  0  0  0  0  0  0  0  0
   -6.1096   -1.4539    0.3886 H   0  0  0  0  0  0  0  0  0  0  0  0
   -5.0026   -2.1821   -0.8128 H   0  0  0  0  0  0  0  0  0  0  0  0
   -5.8167   -0.6076   -1.1945 H   0  0  0  0  0  0  0  0  0  0  0  0
  1  2  1  0
  2  3  2  0
  3  4  1  0
  4  5  2  0
  5  6  1  0
  6  7  1  0
  7  8  1  0
  8  9  2  0
  9 10  1  0
 10 11  2  0
 11 12  1  0
 12 13  2  0
 13 14  1  0
 14 15  2  0
 11 16  1  0
 16 17  2  0
 17 18  1  0
 18 19  1  0
 19 20  1  0
 20 21  1  0
  5 22  1  0
 22 23  2  0
 23 24  1  0
 23  2  1  0
 19  6  1  0
 17  8  1  0
  1 25  1  0
  1 26  1  0
  1 27  1  0
  3 28  1  0
  4 29  1  0
  6 30  1  6
  9 31  1  0
 10 32  1  0
 12 33  1  0
 13 34  1  0
 14 35  1  0
 16 36  1  0
 19 37  1  1
 20 38  1  0
 20 39  1  0
 21 40  1  0
 22 41  1  0
 24 42  1  0
 24 43  1  0
 24 44  1  0
M  END

     RDKit          3D

 54 57  0  0  0  0  0  0  0  0999 V2000
    3.3270   -3.0577   -1.3370 O   0  0  0  0  0  0  0  0  0  0  0  0
    2.4426   -2.6742   -0.5278 C   0  0  0  0  0  0  0  0  0  0  0  0
    2.8131   -2.4005    0.8967 C   0  0  0  0  0  0  0  0  0  0  0  0
    2.2913   -1.0154    1.3032 C   0  0  1  0  0  0  0  0  0  0  0  0
    3.1424    0.0933    0.7070 C   0  0  0  0  0  0  0  0  0  0  0  0
    2.7508    0.8026   -0.4456 C   0  0  0  0  0  0  0  0  0  0  0  0
    3.5937    1.7665   -1.0046 C   0  0  0  0  0  0  0  0  0  0  0  0
    4.8382    2.0386   -0.4280 C   0  0  0  0  0  0  0  0  0  0  0  0
    5.6643    2.9939   -1.0180 O   0  0  0  0  0  0  0  0  0  0  0  0
    5.2424    1.3388    0.7204 C   0  0  0  0  0  0  0  0  0  0  0  0
    6.4867    1.5975    1.2919 O   0  0  0  0  0  0  0  0  0  0  0  0
    4.3955    0.3711    1.2811 C   0  0  0  0  0  0  0  0  0  0  0  0
    0.9098   -0.8766    0.9490 O   0  0  0  0  0  0  0  0  0  0  0  0
    0.3213   -1.4569   -0.1924 C   0  0  0  0  0  0  0  0  0  0  0  0
    1.0567   -2.3827   -0.9654 C   0  0  0  0  0  0  0  0  0  0  0  0
    0.4585   -2.9696   -2.1021 C   0  0  0  0  0  0  0  0  0  0  0  0
    1.0864   -3.9472   -2.8764 O   0  0  0  0  0  0  0  0  0  0  0  0
   -0.8398   -2.6064   -2.4609 C   0  0  0  0  0  0  0  0  0  0  0  0
   -1.5827   -1.7099   -1.6914 C   0  0  0  0  0  0  0  0  0  0  0  0
   -2.9005   -1.4702   -2.0899 O   0  0  0  0  0  0  0  0  0  0  0  0
   -0.9972   -1.0947   -0.5553 C   0  0  0  0  0  0  0  0  0  0  0  0
   -1.7524   -0.0690    0.2891 C   0  0  1  0  0  0  0  0  0  0  0  0
   -2.4098    0.8619   -0.5510 O   0  0  0  0  0  0  0  0  0  0  0  0
   -2.8270    2.0029    0.1854 C   0  0  1  0  0  0  0  0  0  0  0  0
   -3.6618    2.8959   -0.7413 C   0  0  0  0  0  0  0  0  0  0  0  0
   -4.7926    2.2054   -1.1971 O   0  0  0  0  0  0  0  0  0  0  0  0
   -3.6159    1.6404    1.4899 C   0  0  2  0  0  0  0  0  0  0  0  0
   -2.8381    1.9497    2.6183 O   0  0  0  0  0  0  0  0  0  0  0  0
   -3.9930    0.1467    1.5307 C   0  0  1  0  0  0  0  0  0  0  0  0
   -5.0149   -0.0874    0.5957 O   0  0  0  0  0  0  0  0  0  0  0  0
   -2.7737   -0.7683    1.2253 C   0  0  2  0  0  0  0  0  0  0  0  0
   -2.1462   -1.1913    2.4129 O   0  0  0  0  0  0  0  0  0  0  0  0
    3.9116   -2.4694    1.0444 H   0  0  0  0  0  0  0  0  0  0  0  0
    2.3312   -3.1697    1.5373 H   0  0  0  0  0  0  0  0  0  0  0  0
    2.3558   -0.9369    2.4099 H   0  0  0  0  0  0  0  0  0  0  0  0
    1.8027    0.6133   -0.9275 H   0  0  0  0  0  0  0  0  0  0  0  0
    3.2783    2.3040   -1.8885 H   0  0  0  0  0  0  0  0  0  0  0  0
    6.5816    3.2134   -0.6498 H   0  0  0  0  0  0  0  0  0  0  0  0
    6.8053    1.1043    2.1179 H   0  0  0  0  0  0  0  0  0  0  0  0
    4.7188   -0.1694    2.1641 H   0  0  0  0  0  0  0  0  0  0  0  0
    1.9357   -4.4310   -2.6106 H   0  0  0  0  0  0  0  0  0  0  0  0
   -1.2969   -3.0665   -3.3316 H   0  0  0  0  0  0  0  0  0  0  0  0
   -3.5735   -0.9665   -1.5325 H   0  0  0  0  0  0  0  0  0  0  0  0
   -1.0136    0.4862    0.9141 H   0  0  0  0  0  0  0  0  0  0  0  0
   -1.9253    2.6015    0.4550 H   0  0  0  0  0  0  0  0  0  0  0  0
   -3.0358    3.1998   -1.6100 H   0  0  0  0  0  0  0  0  0  0  0  0
   -3.9692    3.8165   -0.1955 H   0  0  0  0  0  0  0  0  0  0  0  0
   -5.2944    2.8453   -1.7671 H   0  0  0  0  0  0  0  0  0  0  0  0
   -4.5686    2.2233    1.5492 H   0  0  0  0  0  0  0  0  0  0  0  0
   -2.8375    2.9409    2.7037 H   0  0  0  0  0  0  0  0  0  0  0  0
   -4.3841   -0.0850    2.5497 H   0  0  0  0  0  0  0  0  0  0  0  0
   -5.4890   -0.9111    0.8803 H   0  0  0  0  0  0  0  0  0  0  0  0
   -3.1611   -1.6846    0.7264 H   0  0  0  0  0  0  0  0  0  0  0  0
   -1.8472   -0.3857    2.9058 H   0  0  0  0  0  0  0  0  0  0  0  0
  1  2  2  0
  2  3  1  0
  3  4  1  0
  4  5  1  0
  5  6  2  0
  6  7  1  0
  7  8  2  0
  8  9  1  0
  8 10  1  0
 10 11  1  0
 10 12  2  0
  4 13  1  0
 13 14  1  0
 14 15  2  0
 15 16  1  0
 16 17  1  0
 16 18  2  0
 18 19  1  0
 19 20  1  0
 19 21  2  0
 21 22  1  0
 22 23  1  0
 23 24  1  0
 24 25  1  0
 25 26  1  0
 24 27  1  0
 27 28  1  0
 27 29  1  0
 29 30  1  0
 29 31  1  0
 31 32  1  0
 15  2  1  0
 31 22  1  0
 12  5  1  0
 21 14  1  0
  3 33  1  0
  3 34  1  0
  4 35  1  1
  6 36  1  0
  7 37  1  0
  9 38  1  0
 11 39  1  0
 12 40  1  0
 17 41  1  0
 18 42  1  0
 20 43  1  0
 22 44  1  1
 24 45  1  1
 25 46  1  0
 25 47  1  0
 26 48  1  0
 27 49  1  1
 28 50  1  0
 29 51  1  1
 30 52  1  0
 31 53  1  6
 32 54  1  0
M  END

     RDKit          3D

 53 56  0  0  0  0  0  0  0  0999 V2000
    3.5021   -2.0665   -2.3902 O   0  0  0  0  0  0  0  0  0  0  0  0
    2.4646   -2.0025   -1.6865 C   0  0  0  0  0  0  0  0  0  0  0  0
    2.4678   -2.5541   -0.2970 C   0  0  0  0  0  0  0  0  0  0  0  0
    1.7182   -1.6017    0.6467 C   0  0  1  0  0  0  0  0  0  0  0  0
    2.5671   -0.4161    1.0631 C   0  0  0  0  0  0  0  0  0  0  0  0
    3.4676   -0.5872    2.1299 C   0  0  0  0  0  0  0  0  0  0  0  0
    4.2982    0.4613    2.5266 C   0  0  0  0  0  0  0  0  0  0  0  0
    4.2335    1.6975    1.8801 C   0  0  0  0  0  0  0  0  0  0  0  0
    5.0369    2.7457    2.3194 O   0  0  0  0  0  0  0  0  0  0  0  0
    3.3501    1.8747    0.8008 C   0  0  0  0  0  0  0  0  0  0  0  0
    2.5242    0.8248    0.3918 C   0  0  0  0  0  0  0  0  0  0  0  0
    0.4743   -1.1676    0.0880 O   0  0  0  0  0  0  0  0  0  0  0  0
    0.2238   -1.0361   -1.2888 C   0  0  0  0  0  0  0  0  0  0  0  0
    1.1975   -1.4560   -2.2147 C   0  0  0  0  0  0  0  0  0  0  0  0
    0.9328   -1.3690   -3.5950 C   0  0  0  0  0  0  0  0  0  0  0  0
    1.8639   -1.8395   -4.5257 O   0  0  0  0  0  0  0  0  0  0  0  0
   -0.2772   -0.8100   -4.0416 C   0  0  0  0  0  0  0  0  0  0  0  0
   -1.2339   -0.3618   -3.1257 C   0  0  0  0  0  0  0  0  0  0  0  0
   -2.4237    0.1937   -3.6009 O   0  0  0  0  0  0  0  0  0  0  0  0
   -0.9986   -0.4838   -1.7343 C   0  0  0  0  0  0  0  0  0  0  0  0
   -1.9941    0.0881   -0.7272 C   0  0  1  0  0  0  0  0  0  0  0  0
   -2.0829   -0.7791    0.3915 O   0  0  0  0  0  0  0  0  0  0  0  0
   -3.0874   -0.3423    1.2913 C   0  0  1  0  0  0  0  0  0  0  0  0
   -3.2422   -1.4076    2.3882 C   0  0  0  0  0  0  0  0  0  0  0  0
   -3.5887   -2.6527    1.8290 O   0  0  0  0  0  0  0  0  0  0  0  0
   -2.7130    1.0321    1.8984 C   0  0  2  0  0  0  0  0  0  0  0  0
   -3.7451    1.4612    2.7511 O   0  0  0  0  0  0  0  0  0  0  0  0
   -2.5032    2.0666    0.7746 C   0  0  1  0  0  0  0  0  0  0  0  0
   -1.9910    3.2505    1.3276 O   0  0  0  0  0  0  0  0  0  0  0  0
   -1.5296    1.5035   -0.2799 C   0  0  2  0  0  0  0  0  0  0  0  0
   -1.4325    2.3793   -1.3777 O   0  0  0  0  0  0  0  0  0  0  0  0
    3.5084   -2.7321    0.0639 H   0  0  0  0  0  0  0  0  0  0  0  0
    1.9528   -3.5422   -0.3162 H   0  0  0  0  0  0  0  0  0  0  0  0
    1.4698   -2.1849    1.5639 H   0  0  0  0  0  0  0  0  0  0  0  0
    3.5150   -1.5383    2.6665 H   0  0  0  0  0  0  0  0  0  0  0  0
    4.9875    0.3075    3.3470 H   0  0  0  0  0  0  0  0  0  0  0  0
    4.9749    3.6646    1.8926 H   0  0  0  0  0  0  0  0  0  0  0  0
    3.2935    2.8275    0.2833 H   0  0  0  0  0  0  0  0  0  0  0  0
    1.8570    0.9906   -0.4410 H   0  0  0  0  0  0  0  0  0  0  0  0
    1.6747   -1.7966   -5.5277 H   0  0  0  0  0  0  0  0  0  0  0  0
   -0.4667   -0.7145   -5.1054 H   0  0  0  0  0  0  0  0  0  0  0  0
   -2.6291    0.2193   -4.5884 H   0  0  0  0  0  0  0  0  0  0  0  0
   -3.0149    0.1719   -1.1753 H   0  0  0  0  0  0  0  0  0  0  0  0
   -4.0795   -0.2625    0.7836 H   0  0  0  0  0  0  0  0  0  0  0  0
   -2.2778   -1.5244    2.9234 H   0  0  0  0  0  0  0  0  0  0  0  0
   -4.0161   -1.0838    3.1173 H   0  0  0  0  0  0  0  0  0  0  0  0
   -4.5713   -2.6604    1.7227 H   0  0  0  0  0  0  0  0  0  0  0  0
   -1.7579    0.9266    2.4739 H   0  0  0  0  0  0  0  0  0  0  0  0
   -3.3699    2.1725    3.3373 H   0  0  0  0  0  0  0  0  0  0  0  0
   -3.4900    2.2788    0.2885 H   0  0  0  0  0  0  0  0  0  0  0  0
   -2.1925    3.9797    0.6826 H   0  0  0  0  0  0  0  0  0  0  0  0
   -0.5157    1.4174    0.1845 H   0  0  0  0  0  0  0  0  0  0  0  0
   -2.3316    2.4378   -1.7901 H   0  0  0  0  0  0  0  0  0  0  0  0
  1  2  2  0
  2  3  1  0
  3  4  1  0
  4  5  1  0
  5  6  2  0
  6  7  1  0
  7  8  2  0
  8  9  1  0
  8 10  1  0
 10 11  2  0
  4 12  1  0
 12 13  1  0
 13 14  2  0
 14 15  1  0
 15 16  1  0
 15 17  2  0
 17 18  1  0
 18 19  1  0
 18 20  2  0
 20 21  1  0
 21 22  1  0
 22 23  1  0
 23 24  1  0
 24 25  1  0
 23 26  1  0
 26 27  1  0
 26 28  1  0
 28 29  1  0
 28 30  1  0
 30 31  1  0
 14  2  1  0
 30 21  1  0
 11  5  1  0
 20 13  1  0
  3 32  1  0
  3 33  1  0
  4 34  1  1
  6 35  1  0
  7 36  1  0
  9 37  1  0
 10 38  1  0
 11 39  1  0
 16 40  1  0
 17 41  1  0
 19 42  1  0
 21 43  1  6
 23 44  1  6
 24 45  1  0
 24 46  1  0
 25 47  1  0
 26 48  1  1
 27 49  1  0
 28 50  1  6
 29 51  1  0
 30 52  1  1
 31 53  1  0
M  END

     RDKit          3D

 54 57  0  0  0  0  0  0  0  0999 V2000
    1.4515   -3.3867    0.4280 O   0  0  0  0  0  0  0  0  0  0  0  0
    1.8087   -2.1927    0.2438 C   0  0  0  0  0  0  0  0  0  0  0  0
    3.2739   -1.8905    0.0951 C   0  0  0  0  0  0  0  0  0  0  0  0
    3.5725   -0.4873    0.6419 C   0  0  1  0  0  0  0  0  0  0  0  0
    4.9997   -0.0715    0.3795 C   0  0  0  0  0  0  0  0  0  0  0  0
    5.4552    0.1318   -0.9336 C   0  0  0  0  0  0  0  0  0  0  0  0
    6.7707    0.5350   -1.1654 C   0  0  0  0  0  0  0  0  0  0  0  0
    7.6472    0.7646   -0.0971 C   0  0  0  0  0  0  0  0  0  0  0  0
    8.9445    1.1815   -0.3972 O   0  0  0  0  0  0  0  0  0  0  0  0
    7.1936    0.5778    1.2293 C   0  0  0  0  0  0  0  0  0  0  0  0
    8.0051    0.8034    2.3429 O   0  0  0  0  0  0  0  0  0  0  0  0
    5.8776    0.1576    1.4544 C   0  0  0  0  0  0  0  0  0  0  0  0
    2.6762    0.4639    0.0696 O   0  0  0  0  0  0  0  0  0  0  0  0
    1.3010    0.2129   -0.0133 C   0  0  0  0  0  0  0  0  0  0  0  0
    0.4247    1.2745   -0.1963 C   0  0  0  0  0  0  0  0  0  0  0  0
   -0.9541    1.0619   -0.2350 C   0  0  0  0  0  0  0  0  0  0  0  0
   -1.8002    2.1638   -0.3658 O   0  0  0  0  0  0  0  0  0  0  0  0
   -1.4833   -0.2490   -0.1356 C   0  0  0  0  0  0  0  0  0  0  0  0
   -2.9922   -0.4570   -0.2153 C   0  0  2  0  0  0  0  0  0  0  0  0
   -3.5281    0.3825   -1.2265 O   0  0  0  0  0  0  0  0  0  0  0  0
   -4.9125    0.1401   -1.4189 C   0  0  2  0  0  0  0  0  0  0  0  0
   -5.3809    0.9616   -2.6280 C   0  0  0  0  0  0  0  0  0  0  0  0
   -5.1757    2.3298   -2.4064 O   0  0  0  0  0  0  0  0  0  0  0  0
   -5.7108    0.5022   -0.1453 C   0  0  1  0  0  0  0  0  0  0  0  0
   -7.0738    0.2302   -0.3370 O   0  0  0  0  0  0  0  0  0  0  0  0
   -5.1806   -0.3089    1.0475 C   0  0  1  0  0  0  0  0  0  0  0  0
   -5.5296   -1.6632    0.8954 O   0  0  0  0  0  0  0  0  0  0  0  0
   -3.6524   -0.1495    1.1493 C   0  0  1  0  0  0  0  0  0  0  0  0
   -3.1386   -1.0116    2.1335 O   0  0  0  0  0  0  0  0  0  0  0  0
   -0.5844   -1.3314    0.0928 C   0  0  0  0  0  0  0  0  0  0  0  0
   -1.0343   -2.6348    0.3238 O   0  0  0  0  0  0  0  0  0  0  0  0
    0.8089   -1.0972    0.1107 C   0  0  0  0  0  0  0  0  0  0  0  0
    3.8745   -2.6369    0.6563 H   0  0  0  0  0  0  0  0  0  0  0  0
    3.5400   -1.9579   -0.9809 H   0  0  0  0  0  0  0  0  0  0  0  0
    3.3862   -0.5077    1.7409 H   0  0  0  0  0  0  0  0  0  0  0  0
    4.7858   -0.0150   -1.7759 H   0  0  0  0  0  0  0  0  0  0  0  0
    7.1062    0.6828   -2.1840 H   0  0  0  0  0  0  0  0  0  0  0  0
    9.6508    1.3799    0.3002 H   0  0  0  0  0  0  0  0  0  0  0  0
    8.9611    1.1308    2.2903 H   0  0  0  0  0  0  0  0  0  0  0  0
    5.5364    0.0214    2.4745 H   0  0  0  0  0  0  0  0  0  0  0  0
    0.8166    2.2805   -0.2777 H   0  0  0  0  0  0  0  0  0  0  0  0
   -1.4456    3.1121   -0.4319 H   0  0  0  0  0  0  0  0  0  0  0  0
   -3.1953   -1.5046   -0.5065 H   0  0  0  0  0  0  0  0  0  0  0  0
   -5.0910   -0.9334   -1.6761 H   0  0  0  0  0  0  0  0  0  0  0  0
   -6.4605    0.7510   -2.8198 H   0  0  0  0  0  0  0  0  0  0  0  0
   -4.8082    0.6484   -3.5295 H   0  0  0  0  0  0  0  0  0  0  0  0
   -5.5488    2.7906   -3.2021 H   0  0  0  0  0  0  0  0  0  0  0  0
   -5.5701    1.5877    0.0761 H   0  0  0  0  0  0  0  0  0  0  0  0
   -7.5658    0.7360    0.3647 H   0  0  0  0  0  0  0  0  0  0  0  0
   -5.6433    0.1047    1.9757 H   0  0  0  0  0  0  0  0  0  0  0  0
   -5.6383   -2.0423    1.8109 H   0  0  0  0  0  0  0  0  0  0  0  0
   -3.4261    0.9094    1.4237 H   0  0  0  0  0  0  0  0  0  0  0  0
   -3.3567   -0.6012    3.0106 H   0  0  0  0  0  0  0  0  0  0  0  0
   -1.9871   -2.8801    0.5398 H   0  0  0  0  0  0  0  0  0  0  0  0
  1  2  2  0
  2  3  1  0
  3  4  1  0
  4  5  1  0
  5  6  2  0
  6  7  1  0
  7  8  2  0
  8  9  1  0
  8 10  1  0
 10 11  1  0
 10 12  2  0
  4 13  1  0
 13 14  1  0
 14 15  2  0
 15 16  1  0
 16 17  1  0
 16 18  2  0
 18 19  1  0
 19 20  1  0
 20 21  1  0
 21 22  1  0
 22 23  1  0
 21 24  1  0
 24 25  1  0
 24 26  1  0
 26 27  1  0
 26 28  1  0
 28 29  1  0
 18 30  1  0
 30 31  1  0
 30 32  2  0
 32  2  1  0
 12  5  1  0
 32 14  1  0
 28 19  1  0
  3 33  1  0
  3 34  1  0
  4 35  1  1
  6 36  1  0
  7 37  1  0
  9 38  1  0
 11 39  1  0
 12 40  1  0
 15 41  1  0
 17 42  1  0
 19 43  1  6
 21 44  1  6
 22 45  1  0
 22 46  1  0
 23 47  1  0
 24 48  1  1
 25 49  1  0
 26 50  1  1
 27 51  1  0
 28 52  1  1
 29 53  1  0
 31 54  1  0
M  END

     RDKit          3D

 53 56  0  0  0  0  0  0  0  0999 V2000
    1.0664   -2.6254   -1.2697 O   0  0  0  0  0  0  0  0  0  0  0  0
    1.5973   -1.5570   -0.8609 C   0  0  0  0  0  0  0  0  0  0  0  0
    3.0682   -1.3428   -1.0571 C   0  0  0  0  0  0  0  0  0  0  0  0
    3.6902   -0.9052    0.2796 C   0  0  1  0  0  0  0  0  0  0  0  0
    5.1272   -0.4884    0.0879 C   0  0  0  0  0  0  0  0  0  0  0  0
    5.4349    0.7320   -0.5420 C   0  0  0  0  0  0  0  0  0  0  0  0
    6.7635    1.1030   -0.7562 C   0  0  0  0  0  0  0  0  0  0  0  0
    7.8040    0.2702   -0.3322 C   0  0  0  0  0  0  0  0  0  0  0  0
    9.1232    0.6545   -0.5564 O   0  0  0  0  0  0  0  0  0  0  0  0
    7.5085   -0.9442    0.3014 C   0  0  0  0  0  0  0  0  0  0  0  0
    6.1773   -1.3224    0.5102 C   0  0  0  0  0  0  0  0  0  0  0  0
    2.9515    0.1748    0.8579 O   0  0  0  0  0  0  0  0  0  0  0  0
    1.5528    0.2637    0.7932 C   0  0  0  0  0  0  0  0  0  0  0  0
    0.8937    1.1828    1.5995 C   0  0  0  0  0  0  0  0  0  0  0  0
   -0.5006    1.2936    1.5825 C   0  0  0  0  0  0  0  0  0  0  0  0
   -1.0622    2.2479    2.4370 O   0  0  0  0  0  0  0  0  0  0  0  0
   -1.2656    0.4786    0.6999 C   0  0  0  0  0  0  0  0  0  0  0  0
   -2.7876    0.5814    0.6320 C   0  0  2  0  0  0  0  0  0  0  0  0
   -3.3383   -0.7153    0.4732 O   0  0  0  0  0  0  0  0  0  0  0  0
   -4.7543   -0.6861    0.5422 C   0  0  2  0  0  0  0  0  0  0  0  0
   -5.2630   -2.1366    0.5474 C   0  0  0  0  0  0  0  0  0  0  0  0
   -6.6113   -2.1922    0.9143 O   0  0  0  0  0  0  0  0  0  0  0  0
   -5.3369    0.1010   -0.6574 C   0  0  1  0  0  0  0  0  0  0  0  0
   -6.7362    0.1728   -0.5595 O   0  0  0  0  0  0  0  0  0  0  0  0
   -4.7464    1.5256   -0.7207 C   0  0  1  0  0  0  0  0  0  0  0  0
   -5.3648    2.3799    0.2142 O   0  0  0  0  0  0  0  0  0  0  0  0
   -3.2098    1.4892   -0.5548 C   0  0  1  0  0  0  0  0  0  0  0  0
   -2.6916    2.7884   -0.4266 O   0  0  0  0  0  0  0  0  0  0  0  0
   -0.5790   -0.3942   -0.1881 C   0  0  0  0  0  0  0  0  0  0  0  0
   -1.3115   -1.0596   -1.1771 O   0  0  0  0  0  0  0  0  0  0  0  0
    0.8252   -0.5537   -0.0883 C   0  0  0  0  0  0  0  0  0  0  0  0
    3.5533   -2.2808   -1.4123 H   0  0  0  0  0  0  0  0  0  0  0  0
    3.2102   -0.5556   -1.8311 H   0  0  0  0  0  0  0  0  0  0  0  0
    3.6397   -1.7634    0.9828 H   0  0  0  0  0  0  0  0  0  0  0  0
    4.6464    1.3886   -0.8800 H   0  0  0  0  0  0  0  0  0  0  0  0
    6.9872    2.0353   -1.2588 H   0  0  0  0  0  0  0  0  0  0  0  0
    9.8995    0.0703   -0.2780 H   0  0  0  0  0  0  0  0  0  0  0  0
    8.3078   -1.5954    0.6265 H   0  0  0  0  0  0  0  0  0  0  0  0
    5.9671   -2.2682    0.9914 H   0  0  0  0  0  0  0  0  0  0  0  0
    1.4735    1.8171    2.2591 H   0  0  0  0  0  0  0  0  0  0  0  0
   -2.0327    2.5031    2.4644 H   0  0  0  0  0  0  0  0  0  0  0  0
   -3.1693    0.9958    1.5839 H   0  0  0  0  0  0  0  0  0  0  0  0
   -5.0855   -0.2260    1.5030 H   0  0  0  0  0  0  0  0  0  0  0  0
   -4.6544   -2.7526    1.2469 H   0  0  0  0  0  0  0  0  0  0  0  0
   -5.1446   -2.5884   -0.4598 H   0  0  0  0  0  0  0  0  0  0  0  0
   -6.6423   -2.0693    1.9033 H   0  0  0  0  0  0  0  0  0  0  0  0
   -5.0596   -0.4382   -1.5968 H   0  0  0  0  0  0  0  0  0  0  0  0
   -7.0684    0.5556   -1.4172 H   0  0  0  0  0  0  0  0  0  0  0  0
   -4.9636    1.9363   -1.7310 H   0  0  0  0  0  0  0  0  0  0  0  0
   -5.1836    2.0312    1.1229 H   0  0  0  0  0  0  0  0  0  0  0  0
   -2.7924    1.0624   -1.4873 H   0  0  0  0  0  0  0  0  0  0  0  0
   -3.0198    3.1675    0.4310 H   0  0  0  0  0  0  0  0  0  0  0  0
   -0.8932   -1.5416   -1.9595 H   0  0  0  0  0  0  0  0  0  0  0  0
  1  2  2  0
  2  3  1  0
  3  4  1  0
  4  5  1  0
  5  6  2  0
  6  7  1  0
  7  8  2  0
  8  9  1  0
  8 10  1  0
 10 11  2  0
  4 12  1  0
 12 13  1  0
 13 14  2  0
 14 15  1  0
 15 16  1  0
 15 17  2  0
 17 18  1  0
 18 19  1  0
 19 20  1  0
 20 21  1  0
 21 22  1  0
 20 23  1  0
 23 24  1  0
 23 25  1  0
 25 26  1  0
 25 27  1  0
 27 28  1  0
 17 29  1  0
 29 30  1  0
 29 31  2  0
 31  2  1  0
 11  5  1  0
 31 13  1  0
 27 18  1  0
  3 32  1  0
  3 33  1  0
  4 34  1  1
  6 35  1  0
  7 36  1  0
  9 37  1  0
 10 38  1  0
 11 39  1  0
 14 40  1  0
 16 41  1  0
 18 42  1  1
 20 43  1  1
 21 44  1  0
 21 45  1  0
 22 46  1  0
 23 47  1  6
 24 48  1  0
 25 49  1  6
 26 50  1  0
 27 51  1  6
 28 52  1  0
 30 53  1  0
M  END

     RDKit          3D

 46 50  0  0  0  0  0  0  0  0999 V2000
   -4.9788   -0.1789   -0.6688 C   0  0  0  0  0  0  0  0  0  0  0  0
   -3.6650    0.3907   -0.1124 C   0  0  0  0  0  0  0  0  0  0  0  0
   -3.7950    0.5524    1.4115 C   0  0  0  0  0  0  0  0  0  0  0  0
   -2.4527   -0.5170   -0.4660 C   0  0  1  0  0  0  0  0  0  0  0  0
   -2.5880   -1.1003   -1.7708 O   0  0  0  0  0  0  0  0  0  0  0  0
   -1.5056   -1.7439   -2.3982 C   0  0  0  0  0  0  0  0  0  0  0  0
   -1.6967   -2.4161   -3.4438 O   0  0  0  0  0  0  0  0  0  0  0  0
   -0.1482   -1.6416   -1.8176 C   0  0  0  0  0  0  0  0  0  0  0  0
    0.0797   -0.7433   -0.8478 C   0  0  0  0  0  0  0  0  0  0  0  0
    1.2364   -0.8552    0.1403 C   0  0  1  0  0  0  0  0  0  0  0  0
    0.6823   -1.7103    1.3210 C   0  0  0  0  0  0  0  0  0  0  0  0
    2.5637   -1.5521   -0.3079 C   0  0  0  0  0  0  0  0  0  0  0  0
    3.6935   -1.2249    0.6894 C   0  0  0  0  0  0  0  0  0  0  0  0
    3.8670    0.0417    1.1511 C   0  0  0  0  0  0  0  0  0  0  0  0
    3.0135    1.1136    0.5295 C   0  0  2  0  0  0  0  0  0  0  0  0
    3.5441    1.4107   -0.9125 C   0  0  0  0  0  0  0  0  0  0  0  0
    2.7088    2.4393    1.1905 C   0  0  0  0  0  0  0  0  0  0  0  0
    3.5285    3.1422    1.8366 O   0  0  0  0  0  0  0  0  0  0  0  0
    1.3726    2.8221    0.9304 O   0  0  0  0  0  0  0  0  0  0  0  0
    0.7986    1.7950    0.1159 C   0  0  1  0  0  0  0  0  0  0  0  0
    1.5687    0.5930    0.6289 C   0  0  1  0  0  0  0  0  0  0  0  0
   -0.7084    1.5290    0.1247 C   0  0  1  0  0  0  0  0  0  0  0  0
   -1.1225    1.3357   -1.2136 O   0  0  0  0  0  0  0  0  0  0  0  0
   -1.0723    0.1698   -0.4267 C   0  0  2  0  0  0  0  0  0  0  0  0
   -5.8387    0.4435   -0.3397 H   0  0  0  0  0  0  0  0  0  0  0  0
   -5.1335   -1.2214   -0.3159 H   0  0  0  0  0  0  0  0  0  0  0  0
   -4.9642   -0.1692   -1.7788 H   0  0  0  0  0  0  0  0  0  0  0  0
   -3.5302    1.3978   -0.5623 H   0  0  0  0  0  0  0  0  0  0  0  0
   -4.5498    1.3326    1.6493 H   0  0  0  0  0  0  0  0  0  0  0  0
   -2.8324    0.8517    1.8727 H   0  0  0  0  0  0  0  0  0  0  0  0
   -4.1118   -0.4047    1.8804 H   0  0  0  0  0  0  0  0  0  0  0  0
   -2.4232   -1.3565    0.2644 H   0  0  0  0  0  0  0  0  0  0  0  0
    0.6117   -2.3545   -2.1086 H   0  0  0  0  0  0  0  0  0  0  0  0
    0.3983   -2.7265    0.9708 H   0  0  0  0  0  0  0  0  0  0  0  0
    1.4374   -1.8230    2.1281 H   0  0  0  0  0  0  0  0  0  0  0  0
   -0.2178   -1.2425    1.7752 H   0  0  0  0  0  0  0  0  0  0  0  0
    2.4341   -2.6550   -0.3590 H   0  0  0  0  0  0  0  0  0  0  0  0
    2.8538   -1.2419   -1.3284 H   0  0  0  0  0  0  0  0  0  0  0  0
    4.2890   -2.0309    1.1055 H   0  0  0  0  0  0  0  0  0  0  0  0
    4.6179    0.2750    1.8993 H   0  0  0  0  0  0  0  0  0  0  0  0
    3.4782    2.4911   -1.1714 H   0  0  0  0  0  0  0  0  0  0  0  0
    2.9675    0.8786   -1.6935 H   0  0  0  0  0  0  0  0  0  0  0  0
    4.6155    1.1312   -1.0161 H   0  0  0  0  0  0  0  0  0  0  0  0
    1.0743    2.0243   -0.9395 H   0  0  0  0  0  0  0  0  0  0  0  0
    1.3216    0.5610    1.7266 H   0  0  0  0  0  0  0  0  0  0  0  0
   -1.4218    2.1879    0.6569 H   0  0  0  0  0  0  0  0  0  0  0  0
  1  2  1  0
  2  3  1  0
  2  4  1  0
  4  5  1  0
  5  6  1  0
  6  7  2  0
  6  8  1  0
  8  9  2  0
  9 10  1  0
 10 11  1  1
 10 12  1  0
 12 13  1  0
 13 14  2  0
 14 15  1  0
 15 16  1  6
 15 17  1  0
 17 18  2  0
 17 19  1  0
 19 20  1  0
 20 21  1  0
 20 22  1  0
 22 23  1  0
 24 23  1  6
 24  4  1  0
 24  9  1  0
 21 10  1  0
 24 22  1  0
 21 15  1  0
  1 25  1  0
  1 26  1  0
  1 27  1  0
  2 28  1  0
  3 29  1  0
  3 30  1  0
  3 31  1  0
  4 32  1  1
  8 33  1  0
 11 34  1  0
 11 35  1  0
 11 36  1  0
 12 37  1  0
 12 38  1  0
 13 39  1  0
 14 40  1  0
 16 41  1  0
 16 42  1  0
 16 43  1  0
 20 44  1  6
 21 45  1  1
 22 46  1  1
M  END

     RDKit          3D

 47 50  0  0  0  0  0  0  0  0999 V2000
   -4.1280    1.3785   -0.7252 C   0  0  0  0  0  0  0  0  0  0  0  0
   -4.0155    0.0258   -0.0088 C   0  0  0  0  0  0  0  0  0  0  0  0
   -4.2094    0.1491    1.5128 C   0  0  0  0  0  0  0  0  0  0  0  0
   -2.7679   -0.8010   -0.4331 C   0  0  1  0  0  0  0  0  0  0  0  0
   -2.9494   -1.1980   -1.7988 O   0  0  0  0  0  0  0  0  0  0  0  0
   -1.9068   -1.7174   -2.5728 C   0  0  0  0  0  0  0  0  0  0  0  0
   -2.1534   -2.2317   -3.6940 O   0  0  0  0  0  0  0  0  0  0  0  0
   -0.5255   -1.6459   -2.0786 C   0  0  0  0  0  0  0  0  0  0  0  0
   -0.2465   -0.8995   -1.0021 C   0  0  0  0  0  0  0  0  0  0  0  0
   -1.3768   -0.1871   -0.2782 C   0  0  0  0  0  0  0  0  0  0  0  0
   -1.0691    0.8706    0.5160 C   0  0  0  0  0  0  0  0  0  0  0  0
    0.2726    1.4784    0.2841 C   0  0  1  0  0  0  0  0  0  0  0  0
    0.7989    2.4721    1.1628 O   0  0  0  0  0  0  0  0  0  0  0  0
    2.2039    2.3512    1.1085 C   0  0  0  0  0  0  0  0  0  0  0  0
    2.9953    3.1223    1.7085 O   0  0  0  0  0  0  0  0  0  0  0  0
    2.6146    1.2197    0.1894 C   0  0  1  0  0  0  0  0  0  0  0  0
    2.8273    1.8219   -1.2414 C   0  0  0  0  0  0  0  0  0  0  0  0
    3.7659    0.2690    0.5408 C   0  0  0  0  0  0  0  0  0  0  0  0
    3.7309   -0.9880   -0.4018 C   0  0  0  0  0  0  0  0  0  0  0  0
    2.3825   -1.2470   -1.1754 C   0  0  0  0  0  0  0  0  0  0  0  0
    1.1229   -0.9508   -0.3076 C   0  0  2  0  0  0  0  0  0  0  0  0
    1.0064   -2.1025    0.7318 C   0  0  0  0  0  0  0  0  0  0  0  0
    1.3318    0.4083    0.4127 C   0  0  2  0  0  0  0  0  0  0  0  0
   -4.9953    1.9553   -0.3266 H   0  0  0  0  0  0  0  0  0  0  0  0
   -4.2919    1.2147   -1.8160 H   0  0  0  0  0  0  0  0  0  0  0  0
   -3.2102    1.9927   -0.6015 H   0  0  0  0  0  0  0  0  0  0  0  0
   -4.8906   -0.5718   -0.3513 H   0  0  0  0  0  0  0  0  0  0  0  0
   -5.2916    0.2732    1.7383 H   0  0  0  0  0  0  0  0  0  0  0  0
   -3.8621   -0.7666    2.0374 H   0  0  0  0  0  0  0  0  0  0  0  0
   -3.7039    1.0333    1.9425 H   0  0  0  0  0  0  0  0  0  0  0  0
   -2.7597   -1.7327    0.1731 H   0  0  0  0  0  0  0  0  0  0  0  0
    0.2437   -2.2122   -2.5857 H   0  0  0  0  0  0  0  0  0  0  0  0
   -1.7768    1.3838    1.1375 H   0  0  0  0  0  0  0  0  0  0  0  0
    0.2366    1.9083   -0.7418 H   0  0  0  0  0  0  0  0  0  0  0  0
    2.0146    1.5629   -1.9489 H   0  0  0  0  0  0  0  0  0  0  0  0
    2.8962    2.9323   -1.2234 H   0  0  0  0  0  0  0  0  0  0  0  0
    3.7751    1.4715   -1.7029 H   0  0  0  0  0  0  0  0  0  0  0  0
    4.7420    0.7953    0.4441 H   0  0  0  0  0  0  0  0  0  0  0  0
    3.6818   -0.0569    1.6019 H   0  0  0  0  0  0  0  0  0  0  0  0
    3.9827   -1.8849    0.2035 H   0  0  0  0  0  0  0  0  0  0  0  0
    4.5418   -0.8942   -1.1571 H   0  0  0  0  0  0  0  0  0  0  0  0
    2.3770   -2.3059   -1.5168 H   0  0  0  0  0  0  0  0  0  0  0  0
    2.3554   -0.6450   -2.1059 H   0  0  0  0  0  0  0  0  0  0  0  0
    0.8654   -3.0786    0.2183 H   0  0  0  0  0  0  0  0  0  0  0  0
    0.1367   -1.9461    1.4081 H   0  0  0  0  0  0  0  0  0  0  0  0
    1.9135   -2.1706    1.3689 H   0  0  0  0  0  0  0  0  0  0  0  0
    1.3151    0.1444    1.5068 H   0  0  0  0  0  0  0  0  0  0  0  0
  1  2  1  0
  2  3  1  0
  2  4  1  0
  4  5  1  0
  5  6  1  0
  6  7  2  0
  6  8  1  0
  8  9  2  0
  9 10  1  0
 10 11  2  0
 11 12  1  0
 12 13  1  0
 13 14  1  0
 14 15  2  0
 14 16  1  0
 16 17  1  6
 16 18  1  0
 18 19  1  0
 19 20  1  0
 20 21  1  0
 21 22  1  1
 21 23  1  0
 10  4  1  0
 23 12  1  0
 21  9  1  0
 23 16  1  0
  1 24  1  0
  1 25  1  0
  1 26  1  0
  2 27  1  0
  3 28  1  0
  3 29  1  0
  3 30  1  0
  4 31  1  1
  8 32  1  0
 11 33  1  0
 12 34  1  6
 17 35  1  0
 17 36  1  0
 17 37  1  0
 18 38  1  0
 18 39  1  0
 19 40  1  0
 19 41  1  0
 20 42  1  0
 20 43  1  0
 22 44  1  0
 22 45  1  0
 22 46  1  0
 23 47  1  1
M  END

     RDKit          3D

 36 37  0  0  0  0  0  0  0  0999 V2000
   -0.4743   -3.6725    0.8536 C   0  0  0  0  0  0  0  0  0  0  0  0
   -0.2395   -2.2705    0.7720 O   0  0  0  0  0  0  0  0  0  0  0  0
   -1.1851   -1.3200    0.3513 C   0  0  0  0  0  0  0  0  0  0  0  0
   -2.4845   -1.7062   -0.0329 C   0  0  0  0  0  0  0  0  0  0  0  0
   -3.4111   -0.7611   -0.4658 C   0  0  0  0  0  0  0  0  0  0  0  0
   -3.0581    0.5885   -0.5267 C   0  0  0  0  0  0  0  0  0  0  0  0
   -3.9703    1.5535   -0.9667 C   0  0  0  0  0  0  0  0  0  0  0  0
   -3.5822    2.8897   -1.0205 C   0  0  0  0  0  0  0  0  0  0  0  0
   -2.2859    3.2317   -0.6294 C   0  0  0  0  0  0  0  0  0  0  0  0
   -1.9134    4.4332   -0.6708 O   0  0  0  0  0  0  0  0  0  0  0  0
   -1.4398    2.2940   -0.2120 O   0  0  0  0  0  0  0  0  0  0  0  0
   -1.7622    1.0019   -0.1430 C   0  0  0  0  0  0  0  0  0  0  0  0
   -0.8170    0.0492    0.3076 C   0  0  0  0  0  0  0  0  0  0  0  0
    0.5756    0.4952    0.7426 C   0  0  1  0  0  0  0  0  0  0  0  0
    0.7824    0.1827    2.0992 O   0  0  0  0  0  0  0  0  0  0  0  0
    1.6561   -0.0864   -0.1562 C   0  0  0  0  0  0  0  0  0  0  0  0
    2.9662    0.2335   -0.0611 C   0  0  0  0  0  0  0  0  0  0  0  0
    3.4687    1.2427    0.9450 C   0  0  0  0  0  0  0  0  0  0  0  0
    3.9486   -0.3902   -1.0197 C   0  0  0  0  0  0  0  0  0  0  0  0
    3.9891    0.3655   -2.2004 O   0  0  0  0  0  0  0  0  0  0  0  0
   -0.7346   -4.0757   -0.1476 H   0  0  0  0  0  0  0  0  0  0  0  0
   -1.2924   -3.8816    1.5747 H   0  0  0  0  0  0  0  0  0  0  0  0
    0.4502   -4.1730    1.2067 H   0  0  0  0  0  0  0  0  0  0  0  0
   -2.7920   -2.7423   -0.0022 H   0  0  0  0  0  0  0  0  0  0  0  0
   -4.4029   -1.0874   -0.7575 H   0  0  0  0  0  0  0  0  0  0  0  0
   -4.9739    1.2768   -1.2678 H   0  0  0  0  0  0  0  0  0  0  0  0
   -4.2780    3.6472   -1.3601 H   0  0  0  0  0  0  0  0  0  0  0  0
    0.6550    1.5976    0.6571 H   0  0  0  0  0  0  0  0  0  0  0  0
    1.1079   -0.7508    2.1661 H   0  0  0  0  0  0  0  0  0  0  0  0
    1.3538   -0.7930   -0.9254 H   0  0  0  0  0  0  0  0  0  0  0  0
    2.9523    2.2161    0.8043 H   0  0  0  0  0  0  0  0  0  0  0  0
    4.5560    1.4244    0.8208 H   0  0  0  0  0  0  0  0  0  0  0  0
    3.2977    0.8713    1.9782 H   0  0  0  0  0  0  0  0  0  0  0  0
    3.6531   -1.4394   -1.2529 H   0  0  0  0  0  0  0  0  0  0  0  0
    4.9623   -0.4265   -0.5569 H   0  0  0  0  0  0  0  0  0  0  0  0
    4.7223   -0.0178   -2.7454 H   0  0  0  0  0  0  0  0  0  0  0  0
  1  2  1  0
  2  3  1  0
  3  4  2  0
  4  5  1  0
  5  6  2  0
  6  7  1  0
  7  8  2  0
  8  9  1  0
  9 10  2  0
  9 11  1  0
 11 12  1  0
 12 13  2  0
 13 14  1  0
 14 15  1  0
 14 16  1  0
 16 17  2  0
 17 18  1  0
 17 19  1  0
 19 20  1  0
 13  3  1  0
 12  6  1  0
  1 21  1  0
  1 22  1  0
  1 23  1  0
  4 24  1  0
  5 25  1  0
  7 26  1  0
  8 27  1  0
 14 28  1  1
 15 29  1  0
 16 30  1  0
 18 31  1  0
 18 32  1  0
 18 33  1  0
 19 34  1  0
 19 35  1  0
 20 36  1  0
M  END

     RDKit          3D

 42 44  0  0  0  0  0  0  0  0999 V2000
    2.9122   -1.1686    1.1671 C   0  0  0  0  0  0  0  0  0  0  0  0
    2.0267   -0.4349    0.1257 C   0  0  0  0  0  0  0  0  0  0  0  0
    2.3562   -1.0493   -1.2624 C   0  0  0  0  0  0  0  0  0  0  0  0
    2.4037    1.0839    0.1567 C   0  0  1  0  0  0  0  0  0  0  0  0
    3.7167    1.2879   -0.3076 O   0  0  0  0  0  0  0  0  0  0  0  0
    1.4530    1.9470   -0.6857 C   0  0  0  0  0  0  0  0  0  0  0  0
   -0.0056    1.8007   -0.2329 C   0  0  0  0  0  0  0  0  0  0  0  0
   -0.5086    0.3322   -0.2388 C   0  0  2  0  0  0  0  0  0  0  0  0
   -0.7364   -0.1660   -1.7065 C   0  0  0  0  0  0  0  0  0  0  0  0
   -1.8348    0.2614    0.5906 C   0  0  2  0  0  0  0  0  0  0  0  0
   -2.3141   -1.1332    0.6653 C   0  0  0  0  0  0  0  0  0  0  0  0
   -1.5068   -2.1872    0.7993 C   0  0  0  0  0  0  0  0  0  0  0  0
   -0.0017   -2.0577    0.6926 C   0  0  0  0  0  0  0  0  0  0  0  0
    0.5110   -0.5828    0.5473 C   0  0  1  0  0  0  0  0  0  0  0  0
   -3.6807   -1.2226    0.5249 O   0  0  0  0  0  0  0  0  0  0  0  0
   -4.2596    0.0435    0.2505 C   0  0  0  0  0  0  0  0  0  0  0  0
   -3.0822    1.0338    0.0917 C   0  0  1  0  0  0  0  0  0  0  0  0
   -3.3120    2.1729    0.8807 O   0  0  0  0  0  0  0  0  0  0  0  0
    2.7335   -2.2638    1.1462 H   0  0  0  0  0  0  0  0  0  0  0  0
    2.7111   -0.7990    2.1948 H   0  0  0  0  0  0  0  0  0  0  0  0
    3.9919   -1.0168    0.9558 H   0  0  0  0  0  0  0  0  0  0  0  0
    3.4474   -0.9905   -1.4617 H   0  0  0  0  0  0  0  0  0  0  0  0
    1.8615   -0.5225   -2.0946 H   0  0  0  0  0  0  0  0  0  0  0  0
    2.0902   -2.1224   -1.3158 H   0  0  0  0  0  0  0  0  0  0  0  0
    2.3170    1.4525    1.2095 H   0  0  0  0  0  0  0  0  0  0  0  0
    4.3148    1.3044    0.4857 H   0  0  0  0  0  0  0  0  0  0  0  0
    1.7465    3.0135   -0.5687 H   0  0  0  0  0  0  0  0  0  0  0  0
    1.5595    1.7139   -1.7639 H   0  0  0  0  0  0  0  0  0  0  0  0
   -0.0845    2.2234    0.7937 H   0  0  0  0  0  0  0  0  0  0  0  0
   -0.6481    2.4241   -0.8926 H   0  0  0  0  0  0  0  0  0  0  0  0
   -1.7932   -0.0980   -2.0281 H   0  0  0  0  0  0  0  0  0  0  0  0
   -0.4595   -1.2323   -1.8323 H   0  0  0  0  0  0  0  0  0  0  0  0
   -0.1599    0.4231   -2.4474 H   0  0  0  0  0  0  0  0  0  0  0  0
   -1.6365    0.5827    1.6400 H   0  0  0  0  0  0  0  0  0  0  0  0
   -1.9383   -3.1786    0.8595 H   0  0  0  0  0  0  0  0  0  0  0  0
    0.3115   -2.6744   -0.1699 H   0  0  0  0  0  0  0  0  0  0  0  0
    0.4399   -2.5180    1.6018 H   0  0  0  0  0  0  0  0  0  0  0  0
    0.4921   -0.1954    1.5940 H   0  0  0  0  0  0  0  0  0  0  0  0
   -4.9170    0.3316    1.0990 H   0  0  0  0  0  0  0  0  0  0  0  0
   -4.8619   -0.0113   -0.6812 H   0  0  0  0  0  0  0  0  0  0  0  0
   -3.0030    1.3369   -0.9747 H   0  0  0  0  0  0  0  0  0  0  0  0
   -2.6522    2.8560    0.5924 H   0  0  0  0  0  0  0  0  0  0  0  0
  1  2  1  0
  2  3  1  0
  2  4  1  0
  4  5  1  0
  4  6  1  0
  6  7  1  0
  7  8  1  0
  8  9  1  6
  8 10  1  0
 10 11  1  0
 11 12  2  0
 12 13  1  0
 13 14  1  0
 11 15  1  0
 15 16  1  0
 16 17  1  0
 17 18  1  0
 14  2  1  0
 14  8  1  0
 17 10  1  0
  1 19  1  0
  1 20  1  0
  1 21  1  0
  3 22  1  0
  3 23  1  0
  3 24  1  0
  4 25  1  1
  5 26  1  0
  6 27  1  0
  6 28  1  0
  7 29  1  0
  7 30  1  0
  9 31  1  0
  9 32  1  0
  9 33  1  0
 10 34  1  1
 12 35  1  0
 13 36  1  0
 13 37  1  0
 14 38  1  1
 16 39  1  0
 16 40  1  0
 17 41  1  6
 18 42  1  0
M  END

     RDKit          3D

 56 57  0  0  0  0  0  0  0  0999 V2000
   -4.5285    1.6883    1.3187 C   0  0  0  0  0  0  0  0  0  0  0  0
   -3.2629    1.6736    0.4872 C   0  0  0  0  0  0  0  0  0  0  0  0
   -2.7027    2.8689    0.1800 C   0  0  0  0  0  0  0  0  0  0  0  0
   -1.3754    3.0247   -0.5195 C   0  0  0  0  0  0  0  0  0  0  0  0
   -0.8385    1.7258   -1.1235 C   0  0  0  0  0  0  0  0  0  0  0  0
   -1.1238    0.5196   -0.1775 C   0  0  1  0  0  0  0  0  0  0  0  0
   -2.6949    0.3571   -0.0968 C   0  0  2  0  0  0  0  0  0  0  0  0
   -3.3359    0.1558   -1.4691 C   0  0  0  0  0  0  0  0  0  0  0  0
   -4.5428    0.2639   -1.6187 O   0  0  0  0  0  0  0  0  0  0  0  0
   -3.0386   -0.8679    0.7948 C   0  0  1  0  0  0  0  0  0  0  0  0
   -4.4267   -1.0874    0.8429 O   0  0  0  0  0  0  0  0  0  0  0  0
   -2.3850   -2.1267    0.2308 C   0  0  0  0  0  0  0  0  0  0  0  0
   -0.8608   -2.0449    0.3184 C   0  0  1  0  0  0  0  0  0  0  0  0
   -0.2869   -3.4158   -0.1174 C   0  0  0  0  0  0  0  0  0  0  0  0
   -0.2390   -0.7886   -0.4313 C   0  0  1  0  0  0  0  0  0  0  0  0
   -0.0918   -1.0989   -1.9458 C   0  0  0  0  0  0  0  0  0  0  0  0
    1.1976   -0.6081    0.2109 C   0  0  0  0  0  0  0  0  0  0  0  0
    2.1188    0.5054   -0.3181 C   0  0  0  0  0  0  0  0  0  0  0  0
    3.5409    0.2801    0.1597 C   0  0  0  0  0  0  0  0  0  0  0  0
    3.9459    0.8502    1.3203 C   0  0  0  0  0  0  0  0  0  0  0  0
    5.2987    0.6411    1.9482 C   0  0  0  0  0  0  0  0  0  0  0  0
    6.2980    1.2698    1.1936 O   0  0  0  0  0  0  0  0  0  0  0  0
    4.4239   -0.6696   -0.6203 C   0  0  0  0  0  0  0  0  0  0  0  0
    5.5036    0.0306   -1.1760 O   0  0  0  0  0  0  0  0  0  0  0  0
   -4.3923    1.0797    2.2345 H   0  0  0  0  0  0  0  0  0  0  0  0
   -5.3752    1.2929    0.7199 H   0  0  0  0  0  0  0  0  0  0  0  0
   -4.8044    2.7109    1.6520 H   0  0  0  0  0  0  0  0  0  0  0  0
   -3.1537    3.7880    0.5494 H   0  0  0  0  0  0  0  0  0  0  0  0
   -1.4760    3.7883   -1.3193 H   0  0  0  0  0  0  0  0  0  0  0  0
   -0.6429    3.4088    0.2220 H   0  0  0  0  0  0  0  0  0  0  0  0
    0.2240    1.8750   -1.3467 H   0  0  0  0  0  0  0  0  0  0  0  0
   -1.3017    1.5841   -2.1200 H   0  0  0  0  0  0  0  0  0  0  0  0
   -0.8149    0.8487    0.8434 H   0  0  0  0  0  0  0  0  0  0  0  0
   -2.7425   -0.1021   -2.3341 H   0  0  0  0  0  0  0  0  0  0  0  0
   -2.6496   -0.6804    1.8263 H   0  0  0  0  0  0  0  0  0  0  0  0
   -4.6050   -1.6200    1.6606 H   0  0  0  0  0  0  0  0  0  0  0  0
   -2.7368   -2.9962    0.8291 H   0  0  0  0  0  0  0  0  0  0  0  0
   -2.7045   -2.3053   -0.8178 H   0  0  0  0  0  0  0  0  0  0  0  0
   -0.6296   -1.9536    1.4043 H   0  0  0  0  0  0  0  0  0  0  0  0
   -0.6719   -4.2197    0.5511 H   0  0  0  0  0  0  0  0  0  0  0  0
   -0.6042   -3.6658   -1.1549 H   0  0  0  0  0  0  0  0  0  0  0  0
    0.8191   -3.4661   -0.0582 H   0  0  0  0  0  0  0  0  0  0  0  0
    0.1839   -0.2062   -2.5372 H   0  0  0  0  0  0  0  0  0  0  0  0
    0.7093   -1.8506   -2.1183 H   0  0  0  0  0  0  0  0  0  0  0  0
   -1.0305   -1.5125   -2.3617 H   0  0  0  0  0  0  0  0  0  0  0  0
    1.0923   -0.4462    1.3073 H   0  0  0  0  0  0  0  0  0  0  0  0
    1.7636   -1.5537    0.1017 H   0  0  0  0  0  0  0  0  0  0  0  0
    2.1191    0.5387   -1.4278 H   0  0  0  0  0  0  0  0  0  0  0  0
    1.7689    1.4853    0.0700 H   0  0  0  0  0  0  0  0  0  0  0  0
    3.2458    1.4659    1.8753 H   0  0  0  0  0  0  0  0  0  0  0  0
    5.2933    1.0530    2.9825 H   0  0  0  0  0  0  0  0  0  0  0  0
    5.5171   -0.4441    2.0329 H   0  0  0  0  0  0  0  0  0  0  0  0
    6.2090    2.2444    1.3589 H   0  0  0  0  0  0  0  0  0  0  0  0
    4.7839   -1.4843    0.0513 H   0  0  0  0  0  0  0  0  0  0  0  0
    3.8492   -1.1511   -1.4407 H   0  0  0  0  0  0  0  0  0  0  0  0
    6.1642   -0.6526   -1.4602 H   0  0  0  0  0  0  0  0  0  0  0  0
  1  2  1  0
  2  3  2  0
  3  4  1  0
  4  5  1  0
  5  6  1  0
  6  7  1  0
  7  8  1  6
  8  9  2  0
  7 10  1  0
 10 11  1  0
 10 12  1  0
 12 13  1  0
 13 14  1  0
 13 15  1  0
 15 16  1  6
 15 17  1  0
 17 18  1  0
 18 19  1  0
 19 20  2  0
 20 21  1  0
 21 22  1  0
 19 23  1  0
 23 24  1  0
  7  2  1  0
 15  6  1  0
  1 25  1  0
  1 26  1  0
  1 27  1  0
  3 28  1  0
  4 29  1  0
  4 30  1  0
  5 31  1  0
  5 32  1  0
  6 33  1  1
  8 34  1  0
 10 35  1  1
 11 36  1  0
 12 37  1  0
 12 38  1  0
 13 39  1  1
 14 40  1  0
 14 41  1  0
 14 42  1  0
 16 43  1  0
 16 44  1  0
 16 45  1  0
 17 46  1  0
 17 47  1  0
 18 48  1  0
 18 49  1  0
 20 50  1  0
 21 51  1  0
 21 52  1  0
 22 53  1  0
 23 54  1  0
 23 55  1  0
 24 56  1  0
M  END

     RDKit          3D

 57 58  0  0  0  0  0  0  0  0999 V2000
   -6.1546   -1.2169   -0.9709 C   0  0  0  0  0  0  0  0  0  0  0  0
   -5.1347   -1.9026   -0.2672 O   0  0  0  0  0  0  0  0  0  0  0  0
   -3.7525   -1.5849   -0.3380 C   0  0  0  0  0  0  0  0  0  0  0  0
   -2.8929   -2.5785   -0.0504 C   0  0  0  0  0  0  0  0  0  0  0  0
   -1.3862   -2.5701   -0.1362 C   0  0  0  0  0  0  0  0  0  0  0  0
   -0.6639   -1.2720   -0.5194 C   0  0  0  0  0  0  0  0  0  0  0  0
   -0.9367   -0.0918    0.4741 C   0  0  2  0  0  0  0  0  0  0  0  0
   -2.3764    0.5380    0.2848 C   0  0  2  0  0  0  0  0  0  0  0  0
   -3.0815    0.6360    1.6432 C   0  0  0  0  0  0  0  0  0  0  0  0
   -4.2595    0.3858    1.7888 O   0  0  0  0  0  0  0  0  0  0  0  0
   -3.3004   -0.1905   -0.7593 C   0  0  0  0  0  0  0  0  0  0  0  0
   -2.1289    1.9735   -0.2516 C   0  0  0  0  0  0  0  0  0  0  0  0
   -0.6582    2.0368   -0.6471 C   0  0  1  0  0  0  0  0  0  0  0  0
   -0.1638    3.4798   -0.7866 C   0  0  0  0  0  0  0  0  0  0  0  0
    0.0700    1.1235    0.3657 C   0  0  1  0  0  0  0  0  0  0  0  0
    0.2085    1.8175    1.7748 C   0  0  0  0  0  0  0  0  0  0  0  0
    1.1292    2.8738    1.7497 O   0  0  0  0  0  0  0  0  0  0  0  0
    1.4889    0.7366   -0.1744 C   0  0  0  0  0  0  0  0  0  0  0  0
    2.3107   -0.1461    0.7932 C   0  0  0  0  0  0  0  0  0  0  0  0
    3.4983   -0.8815    0.1843 C   0  0  0  0  0  0  0  0  0  0  0  0
    4.2070   -0.3579   -0.8522 C   0  0  0  0  0  0  0  0  0  0  0  0
    5.5253   -0.8781   -1.3827 C   0  0  0  0  0  0  0  0  0  0  0  0
    6.4526    0.1677   -1.4100 O   0  0  0  0  0  0  0  0  0  0  0  0
    3.9937   -2.0635    0.9929 C   0  0  0  0  0  0  0  0  0  0  0  0
    4.7216   -1.6052    2.1082 O   0  0  0  0  0  0  0  0  0  0  0  0
   -5.8764   -1.0870   -2.0337 H   0  0  0  0  0  0  0  0  0  0  0  0
   -6.3461   -0.2342   -0.5008 H   0  0  0  0  0  0  0  0  0  0  0  0
   -7.0788   -1.8180   -0.9028 H   0  0  0  0  0  0  0  0  0  0  0  0
   -3.3248   -3.5022    0.2730 H   0  0  0  0  0  0  0  0  0  0  0  0
   -1.0836   -3.3552   -0.8553 H   0  0  0  0  0  0  0  0  0  0  0  0
   -1.0203   -2.8966    0.8610 H   0  0  0  0  0  0  0  0  0  0  0  0
   -0.8692   -1.0031   -1.5834 H   0  0  0  0  0  0  0  0  0  0  0  0
    0.3909   -1.5678   -0.4995 H   0  0  0  0  0  0  0  0  0  0  0  0
   -0.8345   -0.5324    1.4873 H   0  0  0  0  0  0  0  0  0  0  0  0
   -2.5041    0.8635    2.5445 H   0  0  0  0  0  0  0  0  0  0  0  0
   -2.8383   -0.2257   -1.7789 H   0  0  0  0  0  0  0  0  0  0  0  0
   -4.1781    0.4626   -0.9309 H   0  0  0  0  0  0  0  0  0  0  0  0
   -2.3525    2.7383    0.5146 H   0  0  0  0  0  0  0  0  0  0  0  0
   -2.7556    2.2434   -1.1476 H   0  0  0  0  0  0  0  0  0  0  0  0
   -0.5813    1.5625   -1.6662 H   0  0  0  0  0  0  0  0  0  0  0  0
   -0.3493    4.0555    0.1389 H   0  0  0  0  0  0  0  0  0  0  0  0
   -0.7082    3.9942   -1.6112 H   0  0  0  0  0  0  0  0  0  0  0  0
    0.8986    3.5335   -1.0534 H   0  0  0  0  0  0  0  0  0  0  0  0
    0.5109    1.0706    2.5388 H   0  0  0  0  0  0  0  0  0  0  0  0
   -0.7484    2.2430    2.1316 H   0  0  0  0  0  0  0  0  0  0  0  0
    1.9718    2.5715    2.1631 H   0  0  0  0  0  0  0  0  0  0  0  0
    1.4012    0.2526   -1.1642 H   0  0  0  0  0  0  0  0  0  0  0  0
    2.0806    1.6568   -0.3460 H   0  0  0  0  0  0  0  0  0  0  0  0
    2.6939    0.4738    1.6454 H   0  0  0  0  0  0  0  0  0  0  0  0
    1.6377   -0.9015    1.2693 H   0  0  0  0  0  0  0  0  0  0  0  0
    3.8363    0.5358   -1.3604 H   0  0  0  0  0  0  0  0  0  0  0  0
    5.9182   -1.7624   -0.8167 H   0  0  0  0  0  0  0  0  0  0  0  0
    5.3361   -1.2203   -2.4257 H   0  0  0  0  0  0  0  0  0  0  0  0
    6.7192    0.3097   -0.4513 H   0  0  0  0  0  0  0  0  0  0  0  0
    4.5825   -2.8014    0.3978 H   0  0  0  0  0  0  0  0  0  0  0  0
    3.1089   -2.6258    1.3385 H   0  0  0  0  0  0  0  0  0  0  0  0
    5.6475   -1.4630    1.7915 H   0  0  0  0  0  0  0  0  0  0  0  0
  1  2  1  0
  2  3  1  0
  3  4  2  0
  4  5  1  0
  5  6  1  0
  6  7  1  0
  7  8  1  0
  8  9  1  1
  9 10  2  0
  8 11  1  0
  8 12  1  0
 12 13  1  0
 13 14  1  0
 13 15  1  0
 15 16  1  1
 16 17  1  0
 15 18  1  0
 18 19  1  0
 19 20  1  0
 20 21  2  0
 21 22  1  0
 22 23  1  0
 20 24  1  0
 24 25  1  0
 11  3  1  0
 15  7  1  0
  1 26  1  0
  1 27  1  0
  1 28  1  0
  4 29  1  0
  5 30  1  0
  5 31  1  0
  6 32  1  0
  6 33  1  0
  7 34  1  1
  9 35  1  0
 11 36  1  0
 11 37  1  0
 12 38  1  0
 12 39  1  0
 13 40  1  6
 14 41  1  0
 14 42  1  0
 14 43  1  0
 16 44  1  0
 16 45  1  0
 17 46  1  0
 18 47  1  0
 18 48  1  0
 19 49  1  0
 19 50  1  0
 21 51  1  0
 22 52  1  0
 22 53  1  0
 23 54  1  0
 24 55  1  0
 24 56  1  0
 25 57  1  0
M  END

     RDKit          3D

 59 60  0  0  0  0  0  0  0  0999 V2000
   -1.2238   -2.8140   -0.5408 C   0  0  0  0  0  0  0  0  0  0  0  0
   -0.2194   -1.7261   -0.1414 C   0  0  2  0  0  0  0  0  0  0  0  0
   -0.4180   -1.4171    1.3687 C   0  0  0  0  0  0  0  0  0  0  0  0
   -0.9275   -0.0255    1.7708 C   0  0  1  0  0  0  0  0  0  0  0  0
    0.1872    0.8002    2.0957 O   0  0  0  0  0  0  0  0  0  0  0  0
   -1.8979    0.6625    0.7405 C   0  0  2  0  0  0  0  0  0  0  0  0
   -1.9362    2.2004    1.0719 C   0  0  0  0  0  0  0  0  0  0  0  0
   -2.4887    2.4434    2.3493 O   0  0  0  0  0  0  0  0  0  0  0  0
   -3.3745    0.1575    0.9128 C   0  0  0  0  0  0  0  0  0  0  0  0
   -3.9336   -0.3904    2.2199 C   0  0  0  0  0  0  0  0  0  0  0  0
   -3.4828   -1.7018    2.4267 O   0  0  0  0  0  0  0  0  0  0  0  0
   -4.2943    0.4247   -0.0472 C   0  0  0  0  0  0  0  0  0  0  0  0
   -3.8951    0.9702   -1.3687 C   0  0  0  0  0  0  0  0  0  0  0  0
   -2.6112    0.2859   -1.7856 C   0  0  0  0  0  0  0  0  0  0  0  0
   -1.4121    0.4914   -0.7915 C   0  0  2  0  0  0  0  0  0  0  0  0
   -0.1649   -0.4734   -1.0911 C   0  0  2  0  0  0  0  0  0  0  0  0
   -0.1679   -0.9511   -2.5895 C   0  0  0  0  0  0  0  0  0  0  0  0
    1.1805    0.2978   -0.8536 C   0  0  0  0  0  0  0  0  0  0  0  0
    2.4771   -0.3102   -1.4681 C   0  0  0  0  0  0  0  0  0  0  0  0
    3.7163    0.1192   -0.7293 C   0  0  0  0  0  0  0  0  0  0  0  0
    3.9654    1.4447   -0.5546 C   0  0  0  0  0  0  0  0  0  0  0  0
    5.0210    2.0458    0.2944 C   0  0  0  0  0  0  0  0  0  0  0  0
    6.2471    2.0011   -0.3730 O   0  0  0  0  0  0  0  0  0  0  0  0
    4.6383   -1.0249   -0.3016 C   0  0  0  0  0  0  0  0  0  0  0  0
    5.9305   -0.5984    0.0555 O   0  0  0  0  0  0  0  0  0  0  0  0
   -2.2671   -2.4436   -0.4617 H   0  0  0  0  0  0  0  0  0  0  0  0
   -1.0316   -3.2209   -1.5597 H   0  0  0  0  0  0  0  0  0  0  0  0
   -1.1165   -3.6893    0.1578 H   0  0  0  0  0  0  0  0  0  0  0  0
    0.7625   -2.2493   -0.1966 H   0  0  0  0  0  0  0  0  0  0  0  0
    0.5207   -1.6300    1.9038 H   0  0  0  0  0  0  0  0  0  0  0  0
   -1.0983   -2.1592    1.8306 H   0  0  0  0  0  0  0  0  0  0  0  0
   -1.4985   -0.1862    2.7204 H   0  0  0  0  0  0  0  0  0  0  0  0
    0.1837    0.9589    3.0823 H   0  0  0  0  0  0  0  0  0  0  0  0
   -2.5294    2.7627    0.3356 H   0  0  0  0  0  0  0  0  0  0  0  0
   -0.9234    2.6666    0.9991 H   0  0  0  0  0  0  0  0  0  0  0  0
   -1.7873    2.3315    3.0462 H   0  0  0  0  0  0  0  0  0  0  0  0
   -3.6469    0.2573    3.0606 H   0  0  0  0  0  0  0  0  0  0  0  0
   -5.0438   -0.4309    2.2161 H   0  0  0  0  0  0  0  0  0  0  0  0
   -3.7481   -1.9768    3.3495 H   0  0  0  0  0  0  0  0  0  0  0  0
   -5.3358    0.1248    0.0633 H   0  0  0  0  0  0  0  0  0  0  0  0
   -3.7662    2.0726   -1.3374 H   0  0  0  0  0  0  0  0  0  0  0  0
   -4.6810    0.7453   -2.1264 H   0  0  0  0  0  0  0  0  0  0  0  0
   -2.3241    0.6290   -2.8098 H   0  0  0  0  0  0  0  0  0  0  0  0
   -2.8580   -0.7996   -1.8703 H   0  0  0  0  0  0  0  0  0  0  0  0
   -1.0750    1.4965   -1.1055 H   0  0  0  0  0  0  0  0  0  0  0  0
   -1.0805   -1.4762   -2.8921 H   0  0  0  0  0  0  0  0  0  0  0  0
   -0.0635   -0.0606   -3.2516 H   0  0  0  0  0  0  0  0  0  0  0  0
    0.6546   -1.6769   -2.8067 H   0  0  0  0  0  0  0  0  0  0  0  0
    1.3548    0.4132    0.2193 H   0  0  0  0  0  0  0  0  0  0  0  0
    1.0731    1.3008   -1.3096 H   0  0  0  0  0  0  0  0  0  0  0  0
    2.3951   -1.4205   -1.4549 H   0  0  0  0  0  0  0  0  0  0  0  0
    2.5671    0.0084   -2.5438 H   0  0  0  0  0  0  0  0  0  0  0  0
    3.2332    2.1723   -0.9075 H   0  0  0  0  0  0  0  0  0  0  0  0
    5.0721    1.4896    1.2599 H   0  0  0  0  0  0  0  0  0  0  0  0
    4.7603    3.1283    0.5144 H   0  0  0  0  0  0  0  0  0  0  0  0
    6.9162    2.3916    0.2516 H   0  0  0  0  0  0  0  0  0  0  0  0
    4.6956   -1.7303   -1.1684 H   0  0  0  0  0  0  0  0  0  0  0  0
    4.2013   -1.5563    0.5850 H   0  0  0  0  0  0  0  0  0  0  0  0
    6.5692   -1.1552   -0.4637 H   0  0  0  0  0  0  0  0  0  0  0  0
  1  2  1  0
  2  3  1  0
  3  4  1  0
  4  5  1  0
  4  6  1  0
  6  7  1  1
  7  8  1  0
  6  9  1  0
  9 10  1  0
 10 11  1  0
  9 12  2  0
 12 13  1  0
 13 14  1  0
 14 15  1  0
 15 16  1  0
 16 17  1  6
 16 18  1  0
 18 19  1  0
 19 20  1  0
 20 21  2  0
 21 22  1  0
 22 23  1  0
 20 24  1  0
 24 25  1  0
 16  2  1  0
 15  6  1  0
  1 26  1  0
  1 27  1  0
  1 28  1  0
  2 29  1  1
  3 30  1  0
  3 31  1  0
  4 32  1  1
  5 33  1  0
  7 34  1  0
  7 35  1  0
  8 36  1  0
 10 37  1  0
 10 38  1  0
 11 39  1  0
 12 40  1  0
 13 41  1  0
 13 42  1  0
 14 43  1  0
 14 44  1  0
 15 45  1  6
 17 46  1  0
 17 47  1  0
 17 48  1  0
 18 49  1  0
 18 50  1  0
 19 51  1  0
 19 52  1  0
 21 53  1  0
 22 54  1  0
 22 55  1  0
 23 56  1  0
 24 57  1  0
 24 58  1  0
 25 59  1  0
M  END

     RDKit          3D

 79 82  0  0  0  0  0  0  0  0999 V2000
    9.8624   -1.3208   -1.0486 C   0  0  0  0  0  0  0  0  0  0  0  0
    8.7685   -0.4242   -0.4935 C   0  0  0  0  0  0  0  0  0  0  0  0
    9.1390    0.8271    0.2603 C   0  0  0  0  0  0  0  0  0  0  0  0
    7.4932   -0.7852   -0.7219 C   0  0  0  0  0  0  0  0  0  0  0  0
    6.3257   -0.0349   -0.2282 C   0  0  0  0  0  0  0  0  0  0  0  0
    5.0983   -0.3425   -0.6724 C   0  0  0  0  0  0  0  0  0  0  0  0
    3.8430    0.3244   -0.2375 C   0  0  0  0  0  0  0  0  0  0  0  0
    3.8791    1.6296    0.5322 C   0  0  0  0  0  0  0  0  0  0  0  0
    2.6879   -0.3031   -0.5376 C   0  0  0  0  0  0  0  0  0  0  0  0
    1.2761    0.2268   -0.3487 C   0  0  1  0  0  0  0  0  0  0  0  0
    0.6344    0.3259   -1.7414 C   0  0  0  0  0  0  0  0  0  0  0  0
   -0.7480    0.9396   -1.6850 C   0  0  0  0  0  0  0  0  0  0  0  0
   -1.7003    0.1692   -0.7263 C   0  0  2  0  0  0  0  0  0  0  0  0
   -3.2375    0.6143   -0.8414 C   0  0  1  0  0  0  0  0  0  0  0  0
   -3.3761    2.1677   -0.9730 C   0  0  0  0  0  0  0  0  0  0  0  0
   -3.7914   -0.0512   -2.1426 C   0  0  0  0  0  0  0  0  0  0  0  0
   -5.3110    0.0051   -2.3016 C   0  0  0  0  0  0  0  0  0  0  0  0
   -6.0080   -0.6642   -1.1174 C   0  0  2  0  0  0  0  0  0  0  0  0
   -7.4013   -0.6226   -1.3282 O   0  0  0  0  0  0  0  0  0  0  0  0
   -5.6518    0.0175    0.2381 C   0  0  0  0  0  0  0  0  0  0  0  0
   -6.3225   -0.7988    1.3764 C   0  0  0  0  0  0  0  0  0  0  0  0
   -6.2961    1.4336    0.3351 C   0  0  0  0  0  0  0  0  0  0  0  0
   -4.0663    0.1185    0.4346 C   0  0  1  0  0  0  0  0  0  0  0  0
   -3.4163   -1.1685    0.9928 C   0  0  0  0  0  0  0  0  0  0  0  0
   -2.0647   -0.8220    1.6282 C   0  0  0  0  0  0  0  0  0  0  0  0
   -1.0944    0.0380    0.7269 C   0  0  2  0  0  0  0  0  0  0  0  0
   -1.0289    1.4537    1.3873 C   0  0  0  0  0  0  0  0  0  0  0  0
    0.3869   -0.6035    0.6537 C   0  0  1  0  0  0  0  0  0  0  0  0
    0.4531   -2.1304    0.2507 C   0  0  0  0  0  0  0  0  0  0  0  0
    1.5534   -2.6726    0.9874 O   0  0  0  0  0  0  0  0  0  0  0  0
    1.8930   -1.8311    2.0238 C   0  0  0  0  0  0  0  0  0  0  0  0
    2.8173   -2.0859    2.8506 O   0  0  0  0  0  0  0  0  0  0  0  0
    1.0656   -0.6007    2.0527 C   0  0  0  0  0  0  0  0  0  0  0  0
    9.6936   -2.3697   -0.7311 H   0  0  0  0  0  0  0  0  0  0  0  0
   10.8685   -1.0060   -0.6932 H   0  0  0  0  0  0  0  0  0  0  0  0
    9.8548   -1.2691   -2.1607 H   0  0  0  0  0  0  0  0  0  0  0  0
    8.6922    1.7123   -0.2337 H   0  0  0  0  0  0  0  0  0  0  0  0
   10.2453    0.9693    0.2884 H   0  0  0  0  0  0  0  0  0  0  0  0
    8.7705    0.7635    1.3071 H   0  0  0  0  0  0  0  0  0  0  0  0
    7.3026   -1.6830   -1.3142 H   0  0  0  0  0  0  0  0  0  0  0  0
    6.4547    0.6953    0.5663 H   0  0  0  0  0  0  0  0  0  0  0  0
    5.0077   -1.0934   -1.4431 H   0  0  0  0  0  0  0  0  0  0  0  0
    4.8357    2.1569    0.3892 H   0  0  0  0  0  0  0  0  0  0  0  0
    3.7493    1.4436    1.6197 H   0  0  0  0  0  0  0  0  0  0  0  0
    3.1158    2.3582    0.1830 H   0  0  0  0  0  0  0  0  0  0  0  0
    2.7494   -1.2526   -1.0547 H   0  0  0  0  0  0  0  0  0  0  0  0
    1.3396    1.2573    0.0434 H   0  0  0  0  0  0  0  0  0  0  0  0
    0.5807   -0.6622   -2.2574 H   0  0  0  0  0  0  0  0  0  0  0  0
    1.2783    0.9722   -2.3777 H   0  0  0  0  0  0  0  0  0  0  0  0
   -0.5976    1.9950   -1.3913 H   0  0  0  0  0  0  0  0  0  0  0  0
   -1.1488    0.9267   -2.7125 H   0  0  0  0  0  0  0  0  0  0  0  0
   -1.6538   -0.8807   -1.0981 H   0  0  0  0  0  0  0  0  0  0  0  0
   -4.2629    2.4708   -1.5641 H   0  0  0  0  0  0  0  0  0  0  0  0
   -3.4499    2.6847    0.0058 H   0  0  0  0  0  0  0  0  0  0  0  0
   -2.5713    2.6631   -1.5403 H   0  0  0  0  0  0  0  0  0  0  0  0
   -3.3432    0.4416   -3.0385 H   0  0  0  0  0  0  0  0  0  0  0  0
   -3.5021   -1.1300   -2.1837 H   0  0  0  0  0  0  0  0  0  0  0  0
   -5.6741    1.0342   -2.4628 H   0  0  0  0  0  0  0  0  0  0  0  0
   -5.5831   -0.5628   -3.2161 H   0  0  0  0  0  0  0  0  0  0  0  0
   -5.6586   -1.7180   -1.0723 H   0  0  0  0  0  0  0  0  0  0  0  0
   -7.7548   -1.5530   -1.2573 H   0  0  0  0  0  0  0  0  0  0  0  0
   -7.4343   -0.7234    1.3397 H   0  0  0  0  0  0  0  0  0  0  0  0
   -5.9959   -0.4321    2.3657 H   0  0  0  0  0  0  0  0  0  0  0  0
   -6.0986   -1.8780    1.2914 H   0  0  0  0  0  0  0  0  0  0  0  0
   -6.0552    2.1003   -0.5220 H   0  0  0  0  0  0  0  0  0  0  0  0
   -7.4156    1.3749    0.3428 H   0  0  0  0  0  0  0  0  0  0  0  0
   -5.9810    1.9549    1.2654 H   0  0  0  0  0  0  0  0  0  0  0  0
   -3.9471    0.8550    1.2429 H   0  0  0  0  0  0  0  0  0  0  0  0
   -3.2662   -1.9460    0.2052 H   0  0  0  0  0  0  0  0  0  0  0  0
   -3.9994   -1.6269    1.8102 H   0  0  0  0  0  0  0  0  0  0  0  0
   -1.6350   -1.7944    1.9501 H   0  0  0  0  0  0  0  0  0  0  0  0
   -2.2689   -0.3141    2.5981 H   0  0  0  0  0  0  0  0  0  0  0  0
   -2.0269    1.8991    1.5008 H   0  0  0  0  0  0  0  0  0  0  0  0
   -0.6180    1.3998    2.4210 H   0  0  0  0  0  0  0  0  0  0  0  0
   -0.4365    2.1877    0.8227 H   0  0  0  0  0  0  0  0  0  0  0  0
   -0.4426   -2.7237    0.5323 H   0  0  0  0  0  0  0  0  0  0  0  0
    0.5964   -2.3072   -0.8362 H   0  0  0  0  0  0  0  0  0  0  0  0
    0.3452   -0.7275    2.8947 H   0  0  0  0  0  0  0  0  0  0  0  0
    1.6791    0.3085    2.2331 H   0  0  0  0  0  0  0  0  0  0  0  0
  1  2  1  0
  2  3  1  0
  2  4  2  0
  4  5  1  0
  5  6  2  0
  6  7  1  0
  7  8  1  0
  7  9  2  0
  9 10  1  0
 10 11  1  0
 11 12  1  0
 12 13  1  0
 13 14  1  0
 14 15  1  6
 14 16  1  0
 16 17  1  0
 17 18  1  0
 18 19  1  0
 18 20  1  0
 20 21  1  0
 20 22  1  0
 20 23  1  0
 23 24  1  0
 24 25  1  0
 25 26  1  0
 26 27  1  1
 26 28  1  0
 28 29  1  6
 29 30  1  0
 30 31  1  0
 31 32  2  0
 31 33  1  0
 28 10  1  0
 26 13  1  0
 33 28  1  0
 23 14  1  0
  1 34  1  0
  1 35  1  0
  1 36  1  0
  3 37  1  0
  3 38  1  0
  3 39  1  0
  4 40  1  0
  5 41  1  0
  6 42  1  0
  8 43  1  0
  8 44  1  0
  8 45  1  0
  9 46  1  0
 10 47  1  1
 11 48  1  0
 11 49  1  0
 12 50  1  0
 12 51  1  0
 13 52  1  6
 15 53  1  0
 15 54  1  0
 15 55  1  0
 16 56  1  0
 16 57  1  0
 17 58  1  0
 17 59  1  0
 18 60  1  1
 19 61  1  0
 21 62  1  0
 21 63  1  0
 21 64  1  0
 22 65  1  0
 22 66  1  0
 22 67  1  0
 23 68  1  1
 24 69  1  0
 24 70  1  0
 25 71  1  0
 25 72  1  0
 27 73  1  0
 27 74  1  0
 27 75  1  0
 29 76  1  0
 29 77  1  0
 33 78  1  0
 33 79  1  0
M  END

     RDKit          3D

 82 87  0  0  0  0  0  0  0  0999 V2000
    8.3304    0.3644    2.0898 C   0  0  0  0  0  0  0  0  0  0  0  0
    7.0455   -0.0371    1.4082 C   0  0  0  0  0  0  0  0  0  0  0  0
    6.8423   -1.5006    1.0725 C   0  0  0  0  0  0  0  0  0  0  0  0
    6.1582    0.9395    1.0917 C   0  0  0  0  0  0  0  0  0  0  0  0
    4.8085    0.7515    0.4282 C   0  0  1  0  0  0  0  0  0  0  0  0
    4.9647    0.3234   -1.0382 C   0  0  0  0  0  0  0  0  0  0  0  0
    3.5877    0.3318   -1.7346 C   0  0  2  0  0  0  0  0  0  0  0  0
    3.7731   -0.2175   -3.1689 C   0  0  0  0  0  0  0  0  0  0  0  0
    3.1154    1.6605   -1.7875 O   0  0  0  0  0  0  0  0  0  0  0  0
    2.6213   -0.5896   -0.9007 C   0  0  2  0  0  0  0  0  0  0  0  0
    1.0631   -0.4560   -1.0492 C   0  0  2  0  0  0  0  0  0  0  0  0
    0.4665    0.4739   -2.1212 C   0  0  0  0  0  0  0  0  0  0  0  0
   -1.0796    0.4639   -2.1093 C   0  0  0  0  0  0  0  0  0  0  0  0
   -1.7149    0.0538   -0.7407 C   0  0  2  0  0  0  0  0  0  0  0  0
   -3.3062    0.1814   -0.6907 C   0  0  1  0  0  0  0  0  0  0  0  0
   -3.8086    1.6232   -1.0103 C   0  0  0  0  0  0  0  0  0  0  0  0
   -3.9159   -0.7721   -1.7709 C   0  0  0  0  0  0  0  0  0  0  0  0
   -5.4291   -1.0177   -1.6316 C   0  0  0  0  0  0  0  0  0  0  0  0
   -5.8002   -1.5425   -0.2387 C   0  0  2  0  0  0  0  0  0  0  0  0
   -7.1889   -1.7296   -0.1602 O   0  0  0  0  0  0  0  0  0  0  0  0
   -5.3115   -0.6150    0.9185 C   0  0  0  0  0  0  0  0  0  0  0  0
   -5.5169   -1.4086    2.2449 C   0  0  0  0  0  0  0  0  0  0  0  0
   -6.1784    0.6735    1.0094 C   0  0  0  0  0  0  0  0  0  0  0  0
   -3.7700   -0.3323    0.7206 C   0  0  2  0  0  0  0  0  0  0  0  0
   -3.0972    0.4946    1.8491 C   0  0  0  0  0  0  0  0  0  0  0  0
   -1.5906    0.2185    1.8340 C   0  0  0  0  0  0  0  0  0  0  0  0
   -0.8744    0.5932    0.4918 C   0  0  2  0  0  0  0  0  0  0  0  0
   -0.7496    2.1500    0.4724 C   0  0  0  0  0  0  0  0  0  0  0  0
    0.5877   -0.0776    0.4071 C   0  0  1  0  0  0  0  0  0  0  0  0
    0.8261   -1.3542    1.2449 C   0  0  0  0  0  0  0  0  0  0  0  0
    2.2184   -1.5618    1.2350 O   0  0  0  0  0  0  0  0  0  0  0  0
    2.7483   -0.3934    0.6343 C   0  0  2  0  0  0  0  0  0  0  0  0
    1.7583    0.7101    0.9479 C   0  0  0  0  0  0  0  0  0  0  0  0
    4.0476   -0.1843    1.1638 O   0  0  0  0  0  0  0  0  0  0  0  0
    8.9276   -0.5268    2.4008 H   0  0  0  0  0  0  0  0  0  0  0  0
    8.1121    0.9612    3.0029 H   0  0  0  0  0  0  0  0  0  0  0  0
    8.9517    0.9698    1.3899 H   0  0  0  0  0  0  0  0  0  0  0  0
    7.4633   -2.1463    1.7293 H   0  0  0  0  0  0  0  0  0  0  0  0
    5.7978   -1.8242    1.2210 H   0  0  0  0  0  0  0  0  0  0  0  0
    7.1528   -1.6846    0.0248 H   0  0  0  0  0  0  0  0  0  0  0  0
    6.4101    1.9577    1.3733 H   0  0  0  0  0  0  0  0  0  0  0  0
    4.3123    1.7467    0.4656 H   0  0  0  0  0  0  0  0  0  0  0  0
    5.3922   -0.7007   -1.0959 H   0  0  0  0  0  0  0  0  0  0  0  0
    5.6677    1.0157   -1.5603 H   0  0  0  0  0  0  0  0  0  0  0  0
    4.1054   -1.2788   -3.1495 H   0  0  0  0  0  0  0  0  0  0  0  0
    2.8425   -0.1526   -3.7569 H   0  0  0  0  0  0  0  0  0  0  0  0
    4.5398    0.3763   -3.7132 H   0  0  0  0  0  0  0  0  0  0  0  0
    3.7541    2.2033   -2.3264 H   0  0  0  0  0  0  0  0  0  0  0  0
    2.9117   -1.6414   -1.1265 H   0  0  0  0  0  0  0  0  0  0  0  0
    0.6756   -1.4668   -1.3137 H   0  0  0  0  0  0  0  0  0  0  0  0
    0.7901    0.1390   -3.1252 H   0  0  0  0  0  0  0  0  0  0  0  0
    0.8068    1.5113   -1.9924 H   0  0  0  0  0  0  0  0  0  0  0  0
   -1.4088    1.4757   -2.4169 H   0  0  0  0  0  0  0  0  0  0  0  0
   -1.4279   -0.2443   -2.8926 H   0  0  0  0  0  0  0  0  0  0  0  0
   -1.5548   -1.0444   -0.6874 H   0  0  0  0  0  0  0  0  0  0  0  0
   -3.5967    2.3648   -0.2280 H   0  0  0  0  0  0  0  0  0  0  0  0
   -3.4092    2.0043   -1.9656 H   0  0  0  0  0  0  0  0  0  0  0  0
   -4.9011    1.6625   -1.1473 H   0  0  0  0  0  0  0  0  0  0  0  0
   -3.7323   -0.3613   -2.7873 H   0  0  0  0  0  0  0  0  0  0  0  0
   -3.4175   -1.7654   -1.7401 H   0  0  0  0  0  0  0  0  0  0  0  0
   -6.0049   -0.1091   -1.8939 H   0  0  0  0  0  0  0  0  0  0  0  0
   -5.7168   -1.7912   -2.3823 H   0  0  0  0  0  0  0  0  0  0  0  0
   -5.2846   -2.5264   -0.1320 H   0  0  0  0  0  0  0  0  0  0  0  0
   -7.3831   -2.5836   -0.6324 H   0  0  0  0  0  0  0  0  0  0  0  0
   -4.7906   -2.2474    2.3361 H   0  0  0  0  0  0  0  0  0  0  0  0
   -5.4104   -0.7622    3.1379 H   0  0  0  0  0  0  0  0  0  0  0  0
   -6.5374   -1.8447    2.3028 H   0  0  0  0  0  0  0  0  0  0  0  0
   -7.0678    0.5045    1.6524 H   0  0  0  0  0  0  0  0  0  0  0  0
   -5.6047    1.5164    1.4476 H   0  0  0  0  0  0  0  0  0  0  0  0
   -6.5903    0.9737    0.0239 H   0  0  0  0  0  0  0  0  0  0  0  0
   -3.3314   -1.3534    0.7992 H   0  0  0  0  0  0  0  0  0  0  0  0
   -3.4651    0.1858    2.8475 H   0  0  0  0  0  0  0  0  0  0  0  0
   -3.3098    1.5772    1.7780 H   0  0  0  0  0  0  0  0  0  0  0  0
   -1.1103    0.7423    2.6878 H   0  0  0  0  0  0  0  0  0  0  0  0
   -1.5143   -0.8619    2.0460 H   0  0  0  0  0  0  0  0  0  0  0  0
   -0.1157    2.5079    1.3100 H   0  0  0  0  0  0  0  0  0  0  0  0
   -1.7108    2.6661    0.6213 H   0  0  0  0  0  0  0  0  0  0  0  0
   -0.3214    2.5399   -0.4661 H   0  0  0  0  0  0  0  0  0  0  0  0
    0.5409   -1.2374    2.3097 H   0  0  0  0  0  0  0  0  0  0  0  0
    0.2959   -2.2388    0.8255 H   0  0  0  0  0  0  0  0  0  0  0  0
    1.9488    1.6528    0.3932 H   0  0  0  0  0  0  0  0  0  0  0  0
    1.6872    0.9214    2.0383 H   0  0  0  0  0  0  0  0  0  0  0  0
  1  2  1  0
  2  3  1  0
  2  4  2  3
  4  5  1  0
  5  6  1  0
  6  7  1  0
  7  8  1  0
  7  9  1  6
  7 10  1  0
 10 11  1  0
 11 12  1  0
 12 13  1  0
 13 14  1  0
 14 15  1  0
 15 16  1  6
 15 17  1  0
 17 18  1  0
 18 19  1  0
 19 20  1  0
 19 21  1  0
 21 22  1  0
 21 23  1  0
 21 24  1  0
 24 25  1  0
 25 26  1  0
 26 27  1  0
 27 28  1  6
 27 29  1  0
 29 30  1  1
 30 31  1  0
 32 31  1  1
 32 33  1  0
 32 34  1  0
 34  5  1  0
 32 10  1  0
 29 11  1  0
 27 14  1  0
 33 29  1  0
 24 15  1  0
  1 35  1  0
  1 36  1  0
  1 37  1  0
  3 38  1  0
  3 39  1  0
  3 40  1  0
  4 41  1  0
  5 42  1  6
  6 43  1  0
  6 44  1  0
  8 45  1  0
  8 46  1  0
  8 47  1  0
  9 48  1  0
 10 49  1  1
 11 50  1  6
 12 51  1  0
 12 52  1  0
 13 53  1  0
 13 54  1  0
 14 55  1  6
 16 56  1  0
 16 57  1  0
 16 58  1  0
 17 59  1  0
 17 60  1  0
 18 61  1  0
 18 62  1  0
 19 63  1  1
 20 64  1  0
 22 65  1  0
 22 66  1  0
 22 67  1  0
 23 68  1  0
 23 69  1  0
 23 70  1  0
 24 71  1  1
 25 72  1  0
 25 73  1  0
 26 74  1  0
 26 75  1  0
 28 76  1  0
 28 77  1  0
 28 78  1  0
 30 79  1  0
 30 80  1  0
 33 81  1  0
 33 82  1  0
M  END

     RDKit          3D

 33 35  0  0  0  0  0  0  0  0999 V2000
    4.0562   -0.4127    2.3772 C   0  0  0  0  0  0  0  0  0  0  0  0
    2.9425   -0.5378    1.4999 O   0  0  0  0  0  0  0  0  0  0  0  0
    2.4966    0.5076    0.6870 C   0  0  0  0  0  0  0  0  0  0  0  0
    3.0515    1.6404    0.7454 O   0  0  0  0  0  0  0  0  0  0  0  0
    1.3653    0.2510   -0.2767 C   0  0  2  0  0  0  0  0  0  0  0  0
    0.9645    1.5507   -1.1463 C   0  0  1  0  0  0  0  0  0  0  0  0
    1.9670    1.7749   -2.1002 O   0  0  0  0  0  0  0  0  0  0  0  0
   -0.3234    1.4964   -1.8299 O   0  0  0  0  0  0  0  0  0  0  0  0
   -1.3045    1.0247   -0.9239 C   0  0  1  0  0  0  0  0  0  0  0  0
   -2.7566    0.8240   -1.3110 C   0  0  0  0  0  0  0  0  0  0  0  0
   -3.2151   -0.2076   -0.2299 C   0  0  0  0  0  0  0  0  0  0  0  0
   -2.0512   -1.2152   -0.1536 C   0  0  2  0  0  0  0  0  0  0  0  0
   -2.2785   -2.2617   -1.0670 O   0  0  0  0  0  0  0  0  0  0  0  0
   -1.4691   -1.7707    1.1310 C   0  0  0  0  0  0  0  0  0  0  0  0
   -0.1640   -1.4519    1.2719 C   0  0  0  0  0  0  0  0  0  0  0  0
    0.1058   -0.2235    0.4822 C   0  0  2  0  0  0  0  0  0  0  0  0
   -0.8989   -0.3770   -0.6115 C   0  0  2  0  0  0  0  0  0  0  0  0
    3.9003    0.4363    3.0787 H   0  0  0  0  0  0  0  0  0  0  0  0
    4.9855   -0.2506    1.7881 H   0  0  0  0  0  0  0  0  0  0  0  0
    4.1626   -1.3498    2.9606 H   0  0  0  0  0  0  0  0  0  0  0  0
    1.7114   -0.5536   -0.9648 H   0  0  0  0  0  0  0  0  0  0  0  0
    0.9335    2.4233   -0.4517 H   0  0  0  0  0  0  0  0  0  0  0  0
    1.8910    2.7301   -2.3702 H   0  0  0  0  0  0  0  0  0  0  0  0
   -1.3579    1.7242   -0.0524 H   0  0  0  0  0  0  0  0  0  0  0  0
   -2.8406    0.3962   -2.3354 H   0  0  0  0  0  0  0  0  0  0  0  0
   -3.3398    1.7680   -1.2407 H   0  0  0  0  0  0  0  0  0  0  0  0
   -3.3507    0.2993    0.7511 H   0  0  0  0  0  0  0  0  0  0  0  0
   -4.1712   -0.6943   -0.5234 H   0  0  0  0  0  0  0  0  0  0  0  0
   -2.9029   -2.9040   -0.6298 H   0  0  0  0  0  0  0  0  0  0  0  0
   -1.9620   -2.5302    1.7373 H   0  0  0  0  0  0  0  0  0  0  0  0
    0.4534   -1.8113    2.0892 H   0  0  0  0  0  0  0  0  0  0  0  0
   -0.1373    0.5800    1.2198 H   0  0  0  0  0  0  0  0  0  0  0  0
   -0.4634   -0.8754   -1.5163 H   0  0  0  0  0  0  0  0  0  0  0  0
  1  2  1  0
  2  3  1  0
  3  4  2  0
  3  5  1  0
  5  6  1  0
  6  7  1  0
  6  8  1  0
  8  9  1  0
  9 10  1  0
 10 11  1  0
 11 12  1  0
 12 13  1  6
 12 14  1  0
 14 15  2  0
 15 16  1  0
 16 17  1  0
 16  5  1  0
 17  9  1  0
 17 12  1  0
  1 18  1  0
  1 19  1  0
  1 20  1  0
  5 21  1  6
  6 22  1  1
  7 23  1  0
  9 24  1  1
 10 25  1  0
 10 26  1  0
 11 27  1  0
 11 28  1  0
 13 29  1  0
 14 30  1  0
 15 31  1  0
 16 32  1  1
 17 33  1  6
M  END

     RDKit          3D

 41 43  0  0  0  0  0  0  0  0999 V2000
   -3.2429   -1.0994    1.4447 C   0  0  0  0  0  0  0  0  0  0  0  0
   -3.1317   -1.3274    0.1283 C   0  0  0  0  0  0  0  0  0  0  0  0
   -1.7818   -1.3887   -0.5794 C   0  0  0  0  0  0  0  0  0  0  0  0
   -2.0068   -1.5583   -2.0983 C   0  0  0  0  0  0  0  0  0  0  0  0
   -1.0660   -2.6663   -0.0704 C   0  0  0  0  0  0  0  0  0  0  0  0
   -0.9886   -0.0768   -0.3440 C   0  0  0  0  0  0  0  0  0  0  0  0
   -1.6096    1.1999   -0.5490 C   0  0  0  0  0  0  0  0  0  0  0  0
   -2.9501    1.2275   -0.9552 O   0  0  0  0  0  0  0  0  0  0  0  0
   -0.8693    2.4115   -0.3476 C   0  0  0  0  0  0  0  0  0  0  0  0
   -1.4238    3.6963   -0.5137 C   0  0  0  0  0  0  0  0  0  0  0  0
   -0.6373    4.8288   -0.3024 C   0  0  0  0  0  0  0  0  0  0  0  0
    0.6979    4.6695    0.0705 C   0  0  0  0  0  0  0  0  0  0  0  0
    1.4231    5.6803    0.2626 O   0  0  0  0  0  0  0  0  0  0  0  0
    1.2105    3.4545    0.2217 O   0  0  0  0  0  0  0  0  0  0  0  0
    0.4958    2.3487    0.0321 C   0  0  0  0  0  0  0  0  0  0  0  0
    1.0762    1.1023    0.1965 C   0  0  0  0  0  0  0  0  0  0  0  0
    2.3663    0.7667    0.5420 C   0  0  0  0  0  0  0  0  0  0  0  0
    2.3734   -0.6257    0.5404 C   0  0  0  0  0  0  0  0  0  0  0  0
    3.5176   -1.5170    0.8437 C   0  0  0  0  0  0  0  0  0  0  0  0
    4.7509   -1.0353    1.0409 C   0  0  0  0  0  0  0  0  0  0  0  0
    3.2962   -3.0043    0.8407 C   0  0  0  0  0  0  0  0  0  0  0  0
    1.1765   -1.0800    0.2213 O   0  0  0  0  0  0  0  0  0  0  0  0
    0.3782   -0.0602    0.0126 C   0  0  0  0  0  0  0  0  0  0  0  0
   -2.3653   -0.9412    2.0646 H   0  0  0  0  0  0  0  0  0  0  0  0
   -4.2234   -1.0592    1.9079 H   0  0  0  0  0  0  0  0  0  0  0  0
   -4.0457   -1.4688   -0.4449 H   0  0  0  0  0  0  0  0  0  0  0  0
   -2.5984   -0.7188   -2.5202 H   0  0  0  0  0  0  0  0  0  0  0  0
   -2.5552   -2.5016   -2.3133 H   0  0  0  0  0  0  0  0  0  0  0  0
   -1.0313   -1.5937   -2.6318 H   0  0  0  0  0  0  0  0  0  0  0  0
   -0.7713   -2.5633    0.9970 H   0  0  0  0  0  0  0  0  0  0  0  0
   -1.7391   -3.5490   -0.1496 H   0  0  0  0  0  0  0  0  0  0  0  0
   -0.1672   -2.8971   -0.6829 H   0  0  0  0  0  0  0  0  0  0  0  0
   -3.4800    2.0628   -1.1586 H   0  0  0  0  0  0  0  0  0  0  0  0
   -2.4502    3.8573   -0.8006 H   0  0  0  0  0  0  0  0  0  0  0  0
   -1.0609    5.8176   -0.4301 H   0  0  0  0  0  0  0  0  0  0  0  0
    3.1790    1.4455    0.7625 H   0  0  0  0  0  0  0  0  0  0  0  0
    5.5840   -1.7023    1.2258 H   0  0  0  0  0  0  0  0  0  0  0  0
    4.9618    0.0242    1.0203 H   0  0  0  0  0  0  0  0  0  0  0  0
    3.3837   -3.3901   -0.1969 H   0  0  0  0  0  0  0  0  0  0  0  0
    2.2841   -3.2461    1.2299 H   0  0  0  0  0  0  0  0  0  0  0  0
    4.0409   -3.5230    1.4828 H   0  0  0  0  0  0  0  0  0  0  0  0
  1  2  2  3
  2  3  1  0
  3  4  1  0
  3  5  1  0
  3  6  1  0
  6  7  2  0
  7  8  1  0
  7  9  1  0
  9 10  1  0
 10 11  2  0
 11 12  1  0
 12 13  2  0
 12 14  1  0
 14 15  1  0
 15 16  1  0
 16 17  1  0
 17 18  2  0
 18 19  1  0
 19 20  2  3
 19 21  1  0
 18 22  1  0
 22 23  1  0
 23  6  1  0
 15  9  2  0
 23 16  2  0
  1 24  1  0
  1 25  1  0
  2 26  1  0
  4 27  1  0
  4 28  1  0
  4 29  1  0
  5 30  1  0
  5 31  1  0
  5 32  1  0
  8 33  1  0
 10 34  1  0
 11 35  1  0
 17 36  1  0
 20 37  1  0
 20 38  1  0
 21 39  1  0
 21 40  1  0
 21 41  1  0
M  END

     RDKit          3D

 41 43  0  0  0  0  0  0  0  0999 V2000
   -5.2789   -1.1391    2.4613 C   0  0  0  0  0  0  0  0  0  0  0  0
   -5.1359   -0.7924    1.1783 C   0  0  0  0  0  0  0  0  0  0  0  0
   -6.3328   -0.7622    0.2693 C   0  0  0  0  0  0  0  0  0  0  0  0
   -3.7963   -0.4644    0.6473 C   0  0  0  0  0  0  0  0  0  0  0  0
   -3.5057   -0.1127   -0.6714 C   0  0  0  0  0  0  0  0  0  0  0  0
   -2.1468    0.1001   -0.6799 C   0  0  0  0  0  0  0  0  0  0  0  0
   -1.7004   -0.1256    0.5927 C   0  0  0  0  0  0  0  0  0  0  0  0
   -0.3602    0.0151    0.9381 C   0  0  0  0  0  0  0  0  0  0  0  0
    0.5612    0.4077   -0.0656 C   0  0  0  0  0  0  0  0  0  0  0  0
    1.9280    0.5702    0.2128 O   0  0  0  0  0  0  0  0  0  0  0  0
    2.4940    0.5466    1.5208 C   0  0  0  0  0  0  0  0  0  0  0  0
    3.9636    0.8580    1.4238 C   0  0  0  0  0  0  0  0  0  0  0  0
    4.8831   -0.0213    0.9639 C   0  0  0  0  0  0  0  0  0  0  0  0
    4.5076   -1.4327    0.5656 C   0  0  0  0  0  0  0  0  0  0  0  0
    6.3173    0.4280    0.8617 C   0  0  0  0  0  0  0  0  0  0  0  0
    0.0912    0.6479   -1.3882 C   0  0  0  0  0  0  0  0  0  0  0  0
    0.9542    1.0329   -2.4247 C   0  0  0  0  0  0  0  0  0  0  0  0
    0.4401    1.2591   -3.7049 C   0  0  0  0  0  0  0  0  0  0  0  0
   -0.9324    1.0933   -3.9276 C   0  0  0  0  0  0  0  0  0  0  0  0
   -1.4142    1.3031   -5.0724 O   0  0  0  0  0  0  0  0  0  0  0  0
   -1.7343    0.7157   -2.9354 O   0  0  0  0  0  0  0  0  0  0  0  0
   -1.2858    0.4923   -1.7016 C   0  0  0  0  0  0  0  0  0  0  0  0
   -2.6941   -0.4639    1.3778 O   0  0  0  0  0  0  0  0  0  0  0  0
   -6.2542   -1.3959    2.8590 H   0  0  0  0  0  0  0  0  0  0  0  0
   -4.4271   -1.1645    3.1335 H   0  0  0  0  0  0  0  0  0  0  0  0
   -6.2465   -1.5868   -0.4697 H   0  0  0  0  0  0  0  0  0  0  0  0
   -7.2853   -0.8892    0.8322 H   0  0  0  0  0  0  0  0  0  0  0  0
   -6.3699    0.2135   -0.2559 H   0  0  0  0  0  0  0  0  0  0  0  0
   -4.1916   -0.0276   -1.5039 H   0  0  0  0  0  0  0  0  0  0  0  0
   -0.0543   -0.1693    1.9581 H   0  0  0  0  0  0  0  0  0  0  0  0
    2.3284   -0.4421    2.0079 H   0  0  0  0  0  0  0  0  0  0  0  0
    1.9982    1.3304    2.1394 H   0  0  0  0  0  0  0  0  0  0  0  0
    4.2824    1.8616    1.7142 H   0  0  0  0  0  0  0  0  0  0  0  0
    5.3860   -2.0003    0.1781 H   0  0  0  0  0  0  0  0  0  0  0  0
    3.7363   -1.4102   -0.2405 H   0  0  0  0  0  0  0  0  0  0  0  0
    4.1064   -1.9866    1.4445 H   0  0  0  0  0  0  0  0  0  0  0  0
    6.9866   -0.3983    0.5466 H   0  0  0  0  0  0  0  0  0  0  0  0
    6.3931    1.2491    0.1167 H   0  0  0  0  0  0  0  0  0  0  0  0
    6.6739    0.7941    1.8532 H   0  0  0  0  0  0  0  0  0  0  0  0
    2.0152    1.1619   -2.2465 H   0  0  0  0  0  0  0  0  0  0  0  0
    1.0999    1.5638   -4.5090 H   0  0  0  0  0  0  0  0  0  0  0  0
  1  2  2  3
  2  3  1  0
  2  4  1  0
  4  5  2  0
  5  6  1  0
  6  7  2  0
  7  8  1  0
  8  9  2  0
  9 10  1  0
 10 11  1  0
 11 12  1  0
 12 13  2  3
 13 14  1  0
 13 15  1  0
  9 16  1  0
 16 17  1  0
 17 18  2  0
 18 19  1  0
 19 20  2  0
 19 21  1  0
 21 22  1  0
  7 23  1  0
 23  4  1  0
 22  6  1  0
 22 16  2  0
  1 24  1  0
  1 25  1  0
  3 26  1  0
  3 27  1  0
  3 28  1  0
  5 29  1  0
  8 30  1  0
 11 31  1  0
 11 32  1  0
 12 33  1  0
 14 34  1  0
 14 35  1  0
 14 36  1  0
 15 37  1  0
 15 38  1  0
 15 39  1  0
 17 40  1  0
 18 41  1  0
M  END

     RDKit          3D

 28 28  0  0  0  0  0  0  0  0999 V2000
   -2.7045    0.9815    1.8759 C   0  0  0  0  0  0  0  0  0  0  0  0
   -2.1611    0.2918    0.8601 C   0  0  0  0  0  0  0  0  0  0  0  0
   -3.0693   -0.5368   -0.0149 C   0  0  0  0  0  0  0  0  0  0  0  0
   -0.6606    0.3552    0.6097 C   0  0  0  0  0  0  0  0  0  0  0  0
   -0.3516    0.9613   -0.7733 C   0  0  0  0  0  0  0  0  0  0  0  0
    1.1624    1.0330   -1.0128 C   0  0  0  0  0  0  0  0  0  0  0  0
    1.8128   -0.3572   -0.8688 C   0  0  0  0  0  0  0  0  0  0  0  0
    3.3271   -0.2677   -1.0871 C   0  0  0  0  0  0  0  0  0  0  0  0
    1.5014   -0.9612    0.5147 C   0  0  0  0  0  0  0  0  0  0  0  0
   -0.0122   -1.0353    0.7561 C   0  0  0  0  0  0  0  0  0  0  0  0
   -2.0947    1.5927    2.5342 H   0  0  0  0  0  0  0  0  0  0  0  0
   -3.7735    0.9432    2.0641 H   0  0  0  0  0  0  0  0  0  0  0  0
   -3.8300    0.1171   -0.4926 H   0  0  0  0  0  0  0  0  0  0  0  0
   -3.5841   -1.3043    0.6010 H   0  0  0  0  0  0  0  0  0  0  0  0
   -2.5087   -1.0579   -0.8169 H   0  0  0  0  0  0  0  0  0  0  0  0
   -0.1901    1.0187    1.3719 H   0  0  0  0  0  0  0  0  0  0  0  0
   -0.7748    1.9878   -0.8312 H   0  0  0  0  0  0  0  0  0  0  0  0
   -0.8145    0.3550   -1.5815 H   0  0  0  0  0  0  0  0  0  0  0  0
    1.3445    1.4262   -2.0369 H   0  0  0  0  0  0  0  0  0  0  0  0
    1.6165    1.7442   -0.2872 H   0  0  0  0  0  0  0  0  0  0  0  0
    1.3952   -1.0286   -1.6530 H   0  0  0  0  0  0  0  0  0  0  0  0
    3.7816   -1.2791   -1.0238 H   0  0  0  0  0  0  0  0  0  0  0  0
    3.7972    0.3862   -0.3217 H   0  0  0  0  0  0  0  0  0  0  0  0
    3.5441    0.1464   -2.0948 H   0  0  0  0  0  0  0  0  0  0  0  0
    1.9250   -1.9873    0.5785 H   0  0  0  0  0  0  0  0  0  0  0  0
    1.9720   -0.3465    1.3142 H   0  0  0  0  0  0  0  0  0  0  0  0
   -0.1947   -1.4234    1.7817 H   0  0  0  0  0  0  0  0  0  0  0  0
   -0.4556   -1.7549    0.0346 H   0  0  0  0  0  0  0  0  0  0  0  0
  1  2  2  3
  2  3  1  0
  2  4  1  0
  4  5  1  0
  5  6  1  0
  6  7  1  0
  7  8  1  0
  7  9  1  0
  9 10  1  0
 10  4  1  0
  1 11  1  0
  1 12  1  0
  3 13  1  0
  3 14  1  0
  3 15  1  0
  4 16  1  0
  5 17  1  0
  5 18  1  0
  6 19  1  0
  6 20  1  0
  7 21  1  0
  8 22  1  0
  8 23  1  0
  8 24  1  0
  9 25  1  0
  9 26  1  0
 10 27  1  0
 10 28  1  0
M  END

     RDKit          3D

 55 58  0  0  0  0  0  0  0  0999 V2000
    4.2218    2.3342    0.1337 C   0  0  0  0  0  0  0  0  0  0  0  0
    3.0058    1.7880   -0.6183 C   0  0  0  0  0  0  0  0  0  0  0  0
    2.2683    0.5582    0.0277 C   0  0  2  0  0  0  0  0  0  0  0  0
    1.7075    0.9732    1.4122 C   0  0  0  0  0  0  0  0  0  0  0  0
    3.2740   -0.6067    0.1983 C   0  0  0  0  0  0  0  0  0  0  0  0
    2.6595   -1.8957    0.7760 C   0  0  1  0  0  0  0  0  0  0  0  0
    2.8769   -1.9494    2.1615 O   0  0  0  0  0  0  0  0  0  0  0  0
    1.1895   -2.1040    0.4943 C   0  0  0  0  0  0  0  0  0  0  0  0
    0.6677   -3.0869    0.9996 O   0  0  0  0  0  0  0  0  0  0  0  0
    0.3974   -1.2939   -0.5511 C   0  0  2  0  0  0  0  0  0  0  0  0
    0.4104   -2.2643   -1.7772 C   0  0  0  0  0  0  0  0  0  0  0  0
    1.1482    0.0540   -0.9665 C   0  0  1  0  0  0  0  0  0  0  0  0
    0.2282    1.2031   -1.4785 C   0  0  0  0  0  0  0  0  0  0  0  0
   -1.1123    0.7318   -2.0104 C   0  0  0  0  0  0  0  0  0  0  0  0
   -1.9061    0.0781   -0.8819 C   0  0  1  0  0  0  0  0  0  0  0  0
   -3.2192   -0.4759   -1.3625 C   0  0  0  0  0  0  0  0  0  0  0  0
   -4.1297   -0.3451   -0.4076 C   0  0  0  0  0  0  0  0  0  0  0  0
   -3.5465    0.3560    0.7795 C   0  0  1  0  0  0  0  0  0  0  0  0
   -4.5730    1.2592    1.4569 C   0  0  0  0  0  0  0  0  0  0  0  0
   -2.9174   -0.7071    1.7407 C   0  0  0  0  0  0  0  0  0  0  0  0
   -1.4308   -1.0325    1.4187 C   0  0  0  0  0  0  0  0  0  0  0  0
   -1.1330   -1.0839   -0.1214 C   0  0  2  0  0  0  0  0  0  0  0  0
   -2.4234    1.1466    0.1094 C   0  0  0  0  0  0  0  0  0  0  0  0
    3.9451    2.7175    1.1406 H   0  0  0  0  0  0  0  0  0  0  0  0
    5.0348    1.5782    0.2146 H   0  0  0  0  0  0  0  0  0  0  0  0
    4.6340    3.1983   -0.4290 H   0  0  0  0  0  0  0  0  0  0  0  0
    3.3419    1.5056   -1.6426 H   0  0  0  0  0  0  0  0  0  0  0  0
    2.3031    2.6401   -0.7255 H   0  0  0  0  0  0  0  0  0  0  0  0
    2.5121    1.3319    2.0730 H   0  0  0  0  0  0  0  0  0  0  0  0
    0.9514    1.7782    1.3304 H   0  0  0  0  0  0  0  0  0  0  0  0
    1.2722    0.1207    1.9547 H   0  0  0  0  0  0  0  0  0  0  0  0
    3.7308   -0.8404   -0.7904 H   0  0  0  0  0  0  0  0  0  0  0  0
    4.0995   -0.2973    0.8671 H   0  0  0  0  0  0  0  0  0  0  0  0
    3.1838   -2.7633    0.2924 H   0  0  0  0  0  0  0  0  0  0  0  0
    3.8283   -2.2225    2.2964 H   0  0  0  0  0  0  0  0  0  0  0  0
   -0.0678   -3.2396   -1.5294 H   0  0  0  0  0  0  0  0  0  0  0  0
   -0.1576   -1.8646   -2.6412 H   0  0  0  0  0  0  0  0  0  0  0  0
    1.4494   -2.4799   -2.1109 H   0  0  0  0  0  0  0  0  0  0  0  0
    1.7348   -0.1979   -1.8797 H   0  0  0  0  0  0  0  0  0  0  0  0
    0.7420    1.7325   -2.3066 H   0  0  0  0  0  0  0  0  0  0  0  0
    0.0501    1.9567   -0.6905 H   0  0  0  0  0  0  0  0  0  0  0  0
   -0.9771    0.0551   -2.8704 H   0  0  0  0  0  0  0  0  0  0  0  0
   -1.6630    1.6078   -2.4116 H   0  0  0  0  0  0  0  0  0  0  0  0
   -3.3944   -0.9756   -2.3119 H   0  0  0  0  0  0  0  0  0  0  0  0
   -5.1491   -0.7005   -0.4786 H   0  0  0  0  0  0  0  0  0  0  0  0
   -4.1052    1.7499    2.3319 H   0  0  0  0  0  0  0  0  0  0  0  0
   -5.4471    0.6605    1.7889 H   0  0  0  0  0  0  0  0  0  0  0  0
   -4.9067    2.0536    0.7696 H   0  0  0  0  0  0  0  0  0  0  0  0
   -2.9617   -0.3408    2.7896 H   0  0  0  0  0  0  0  0  0  0  0  0
   -3.5109   -1.6539    1.7034 H   0  0  0  0  0  0  0  0  0  0  0  0
   -1.1980   -1.9986    1.9149 H   0  0  0  0  0  0  0  0  0  0  0  0
   -0.8039   -0.2610    1.8974 H   0  0  0  0  0  0  0  0  0  0  0  0
   -1.6418   -2.0396   -0.3993 H   0  0  0  0  0  0  0  0  0  0  0  0
   -1.6663    1.5242    0.8263 H   0  0  0  0  0  0  0  0  0  0  0  0
   -2.8265    2.0274   -0.4352 H   0  0  0  0  0  0  0  0  0  0  0  0
  1  2  1  0
  3  2  1  6
  3  4  1  0
  3  5  1  0
  5  6  1  0
  6  7  1  0
  6  8  1  0
  8  9  2  0
  8 10  1  0
 10 11  1  6
 10 12  1  0
 12 13  1  0
 13 14  1  0
 15 14  1  6
 15 16  1  0
 16 17  2  0
 17 18  1  0
 18 19  1  1
 18 20  1  0
 20 21  1  0
 21 22  1  0
 18 23  1  0
 12  3  1  0
 22 15  1  0
 22 10  1  0
 23 15  1  0
  1 24  1  0
  1 25  1  0
  1 26  1  0
  2 27  1  0
  2 28  1  0
  4 29  1  0
  4 30  1  0
  4 31  1  0
  5 32  1  0
  5 33  1  0
  6 34  1  6
  7 35  1  0
 11 36  1  0
 11 37  1  0
 11 38  1  0
 12 39  1  6
 13 40  1  0
 13 41  1  0
 14 42  1  0
 14 43  1  0
 16 44  1  0
 17 45  1  0
 19 46  1  0
 19 47  1  0
 19 48  1  0
 20 49  1  0
 20 50  1  0
 21 51  1  0
 21 52  1  0
 22 53  1  6
 23 54  1  0
 23 55  1  0
M  END

     RDKit          3D

 55 58  0  0  0  0  0  0  0  0999 V2000
   -4.8732   -1.2788   -0.4840 C   0  0  0  0  0  0  0  0  0  0  0  0
   -3.7880   -0.2012   -0.6028 C   0  0  0  0  0  0  0  0  0  0  0  0
   -2.3625   -0.5344   -0.0239 C   0  0  2  0  0  0  0  0  0  0  0  0
   -1.9069   -1.9019   -0.5941 C   0  0  0  0  0  0  0  0  0  0  0  0
   -2.4489   -0.7066    1.5268 C   0  0  0  0  0  0  0  0  0  0  0  0
   -2.3010    0.6137    2.2622 C   0  0  1  0  0  0  0  0  0  0  0  0
   -2.5720    0.4152    3.6302 O   0  0  0  0  0  0  0  0  0  0  0  0
   -0.8907    1.0839    2.0526 C   0  0  0  0  0  0  0  0  0  0  0  0
   -0.2189    1.4131    3.0234 O   0  0  0  0  0  0  0  0  0  0  0  0
   -0.2885    1.1203    0.6437 C   0  0  2  0  0  0  0  0  0  0  0  0
    0.0861    2.6228    0.4097 C   0  0  0  0  0  0  0  0  0  0  0  0
   -1.3860    0.6883   -0.4142 C   0  0  1  0  0  0  0  0  0  0  0  0
   -0.8226    0.6245   -1.8574 C   0  0  0  0  0  0  0  0  0  0  0  0
    0.4574   -0.2087   -2.0189 C   0  0  0  0  0  0  0  0  0  0  0  0
    1.5247    0.0354   -0.9284 C   0  0  1  0  0  0  0  0  0  0  0  0
    2.4271    1.1971   -1.2536 C   0  0  0  0  0  0  0  0  0  0  0  0
    3.6720    0.9413   -0.8623 C   0  0  0  0  0  0  0  0  0  0  0  0
    3.7305   -0.4251   -0.2370 C   0  0  1  0  0  0  0  0  0  0  0  0
    5.0666   -1.1226   -0.5096 C   0  0  0  0  0  0  0  0  0  0  0  0
    3.4129   -0.3436    1.2734 C   0  0  0  0  0  0  0  0  0  0  0  0
    2.0905    0.4016    1.5731 C   0  0  0  0  0  0  0  0  0  0  0  0
    0.9486    0.1397    0.5311 C   0  0  1  0  0  0  0  0  0  0  0  0
    2.5510   -1.1074   -0.9309 C   0  0  0  0  0  0  0  0  0  0  0  0
   -4.6079   -2.2057   -1.0379 H   0  0  0  0  0  0  0  0  0  0  0  0
   -5.8145   -0.8915   -0.9360 H   0  0  0  0  0  0  0  0  0  0  0  0
   -5.1103   -1.5292    0.5727 H   0  0  0  0  0  0  0  0  0  0  0  0
   -3.7052    0.0422   -1.6766 H   0  0  0  0  0  0  0  0  0  0  0  0
   -4.1874    0.7145   -0.1132 H   0  0  0  0  0  0  0  0  0  0  0  0
   -0.8560   -2.1460   -0.3174 H   0  0  0  0  0  0  0  0  0  0  0  0
   -2.0290   -1.9355   -1.7006 H   0  0  0  0  0  0  0  0  0  0  0  0
   -2.5211   -2.7289   -0.1601 H   0  0  0  0  0  0  0  0  0  0  0  0
   -3.3911   -1.1953    1.8348 H   0  0  0  0  0  0  0  0  0  0  0  0
   -1.6376   -1.3835    1.8887 H   0  0  0  0  0  0  0  0  0  0  0  0
   -3.0123    1.3561    1.8381 H   0  0  0  0  0  0  0  0  0  0  0  0
   -2.6905    1.3191    4.0369 H   0  0  0  0  0  0  0  0  0  0  0  0
   -0.8229    3.2587    0.5515 H   0  0  0  0  0  0  0  0  0  0  0  0
    0.4560    2.8191   -0.6130 H   0  0  0  0  0  0  0  0  0  0  0  0
    0.8410    2.9921    1.1291 H   0  0  0  0  0  0  0  0  0  0  0  0
   -2.0698    1.5705   -0.4493 H   0  0  0  0  0  0  0  0  0  0  0  0
   -1.5985    0.2361   -2.5544 H   0  0  0  0  0  0  0  0  0  0  0  0
   -0.6030    1.6487   -2.2082 H   0  0  0  0  0  0  0  0  0  0  0  0
    0.2042   -1.2869   -2.0566 H   0  0  0  0  0  0  0  0  0  0  0  0
    0.8834    0.0051   -3.0283 H   0  0  0  0  0  0  0  0  0  0  0  0
    2.1587    2.0686   -1.8382 H   0  0  0  0  0  0  0  0  0  0  0  0
    4.5242    1.5942   -1.0395 H   0  0  0  0  0  0  0  0  0  0  0  0
    5.0734   -2.1417   -0.0709 H   0  0  0  0  0  0  0  0  0  0  0  0
    5.2487   -1.2125   -1.5980 H   0  0  0  0  0  0  0  0  0  0  0  0
    5.9042   -0.5409   -0.0661 H   0  0  0  0  0  0  0  0  0  0  0  0
    4.2450    0.1618    1.8062 H   0  0  0  0  0  0  0  0  0  0  0  0
    3.3416   -1.3680    1.6852 H   0  0  0  0  0  0  0  0  0  0  0  0
    2.3316    1.4839    1.6211 H   0  0  0  0  0  0  0  0  0  0  0  0
    1.7660    0.0876    2.5858 H   0  0  0  0  0  0  0  0  0  0  0  0
    0.5576   -0.8571    0.7936 H   0  0  0  0  0  0  0  0  0  0  0  0
    2.1875   -2.0184   -0.3988 H   0  0  0  0  0  0  0  0  0  0  0  0
    2.8256   -1.3841   -1.9781 H   0  0  0  0  0  0  0  0  0  0  0  0
  1  2  1  0
  3  2  1  6
  3  4  1  0
  3  5  1  0
  5  6  1  0
  6  7  1  0
  6  8  1  0
  8  9  2  0
  8 10  1  0
 10 11  1  6
 10 12  1  0
 12 13  1  0
 13 14  1  0
 15 14  1  6
 15 16  1  0
 16 17  2  0
 17 18  1  0
 18 19  1  1
 18 20  1  0
 20 21  1  0
 21 22  1  0
 18 23  1  0
 12  3  1  0
 22 15  1  0
 22 10  1  0
 23 15  1  0
  1 24  1  0
  1 25  1  0
  1 26  1  0
  2 27  1  0
  2 28  1  0
  4 29  1  0
  4 30  1  0
  4 31  1  0
  5 32  1  0
  5 33  1  0
  6 34  1  6
  7 35  1  0
 11 36  1  0
 11 37  1  0
 11 38  1  0
 12 39  1  6
 13 40  1  0
 13 41  1  0
 14 42  1  0
 14 43  1  0
 16 44  1  0
 17 45  1  0
 19 46  1  0
 19 47  1  0
 19 48  1  0
 20 49  1  0
 20 50  1  0
 21 51  1  0
 21 52  1  0
 22 53  1  1
 23 54  1  0
 23 55  1  0
M  END

     RDKit          3D

 41 42  0  0  0  0  0  0  0  0999 V2000
   -4.0637    2.5583   -0.1797 C   0  0  0  0  0  0  0  0  0  0  0  0
   -4.7632    1.3176   -0.6848 C   0  0  0  0  0  0  0  0  0  0  0  0
   -6.0893    1.4784   -1.3833 C   0  0  0  0  0  0  0  0  0  0  0  0
   -4.2077    0.0867   -0.5718 C   0  0  0  0  0  0  0  0  0  0  0  0
   -2.8846   -0.1662    0.1171 C   0  0  0  0  0  0  0  0  0  0  0  0
   -2.4365   -1.6267   -0.0608 C   0  0  0  0  0  0  0  0  0  0  0  0
   -1.1455   -1.8980    0.6789 C   0  0  0  0  0  0  0  0  0  0  0  0
   -1.1458   -2.7918    1.8919 C   0  0  0  0  0  0  0  0  0  0  0  0
    0.0052   -1.3633    0.2337 C   0  0  0  0  0  0  0  0  0  0  0  0
    1.2051   -1.5971    0.9163 O   0  0  0  0  0  0  0  0  0  0  0  0
    2.4551   -1.0257    0.6218 C   0  0  0  0  0  0  0  0  0  0  0  0
    3.5481   -1.4256    1.4045 C   0  0  0  0  0  0  0  0  0  0  0  0
    4.8181   -0.8773    1.2037 C   0  0  0  0  0  0  0  0  0  0  0  0
    5.0118    0.0835    0.2041 C   0  0  0  0  0  0  0  0  0  0  0  0
    6.2658    0.6625   -0.0216 C   0  0  0  0  0  0  0  0  0  0  0  0
    6.4072    1.6089   -1.0342 C   0  0  0  0  0  0  0  0  0  0  0  0
    5.2878    1.9606   -1.7983 C   0  0  0  0  0  0  0  0  0  0  0  0
    5.3998    2.8123   -2.7188 O   0  0  0  0  0  0  0  0  0  0  0  0
    4.1043    1.3974   -1.5595 O   0  0  0  0  0  0  0  0  0  0  0  0
    3.9245    0.4875   -0.6035 C   0  0  0  0  0  0  0  0  0  0  0  0
    2.6543   -0.0683   -0.3973 C   0  0  0  0  0  0  0  0  0  0  0  0
   -4.6866    3.4644   -0.3603 H   0  0  0  0  0  0  0  0  0  0  0  0
   -3.8857    2.4860    0.9150 H   0  0  0  0  0  0  0  0  0  0  0  0
   -3.0917    2.6856   -0.7046 H   0  0  0  0  0  0  0  0  0  0  0  0
   -5.9256    1.9647   -2.3675 H   0  0  0  0  0  0  0  0  0  0  0  0
   -6.5962    0.5016   -1.5448 H   0  0  0  0  0  0  0  0  0  0  0  0
   -6.7649    2.1122   -0.7705 H   0  0  0  0  0  0  0  0  0  0  0  0
   -4.7315   -0.7686   -0.9997 H   0  0  0  0  0  0  0  0  0  0  0  0
   -2.1082    0.5012   -0.3082 H   0  0  0  0  0  0  0  0  0  0  0  0
   -2.9892    0.0596    1.1995 H   0  0  0  0  0  0  0  0  0  0  0  0
   -2.2930   -1.8476   -1.1467 H   0  0  0  0  0  0  0  0  0  0  0  0
   -3.2385   -2.3051    0.3048 H   0  0  0  0  0  0  0  0  0  0  0  0
   -0.7868   -2.2243    2.7777 H   0  0  0  0  0  0  0  0  0  0  0  0
   -2.1616   -3.1791    2.1137 H   0  0  0  0  0  0  0  0  0  0  0  0
   -0.4695   -3.6578    1.7147 H   0  0  0  0  0  0  0  0  0  0  0  0
   -0.0168   -0.7548   -0.6590 H   0  0  0  0  0  0  0  0  0  0  0  0
    3.4072   -2.1641    2.1834 H   0  0  0  0  0  0  0  0  0  0  0  0
    5.6419   -1.2043    1.8295 H   0  0  0  0  0  0  0  0  0  0  0  0
    7.1255    0.3871    0.5785 H   0  0  0  0  0  0  0  0  0  0  0  0
    7.3748    2.0580   -1.2227 H   0  0  0  0  0  0  0  0  0  0  0  0
    1.8457    0.2718   -1.0283 H   0  0  0  0  0  0  0  0  0  0  0  0
  1  2  1  0
  2  3  1  0
  2  4  2  3
  4  5  1  0
  5  6  1  0
  6  7  1  0
  7  8  1  0
  7  9  2  0
  9 10  1  0
 10 11  1  0
 11 12  2  0
 12 13  1  0
 13 14  2  0
 14 15  1  0
 15 16  2  0
 16 17  1  0
 17 18  2  0
 17 19  1  0
 19 20  1  0
 20 21  2  0
 21 11  1  0
 20 14  1  0
  1 22  1  0
  1 23  1  0
  1 24  1  0
  3 25  1  0
  3 26  1  0
  3 27  1  0
  4 28  1  0
  5 29  1  0
  5 30  1  0
  6 31  1  0
  6 32  1  0
  8 33  1  0
  8 34  1  0
  8 35  1  0
  9 36  1  0
 12 37  1  0
 13 38  1  0
 15 39  1  0
 16 40  1  0
 21 41  1  0
M  END

     RDKit          3D

 51 54  0  0  0  0  0  0  0  0999 V2000
    4.1378    0.6012    0.2990 C   0  0  0  0  0  0  0  0  0  0  0  0
    3.2202   -0.3972   -0.4537 C   0  0  0  0  0  0  0  0  0  0  0  0
    3.9648   -1.7568   -0.4863 C   0  0  0  0  0  0  0  0  0  0  0  0
    3.0411    0.0967   -1.8658 C   0  0  0  0  0  0  0  0  0  0  0  0
    2.2324    1.1213   -2.1306 C   0  0  0  0  0  0  0  0  0  0  0  0
    2.1859    1.6461   -3.4157 O   0  0  0  0  0  0  0  0  0  0  0  0
    1.4005    1.6877   -1.0623 C   0  0  0  0  0  0  0  0  0  0  0  0
    1.0699    2.9036   -1.1398 O   0  0  0  0  0  0  0  0  0  0  0  0
    0.8931    0.8139    0.0868 C   0  0  2  0  0  0  0  0  0  0  0  0
    0.9763    1.6445    1.3961 C   0  0  0  0  0  0  0  0  0  0  0  0
    1.8069   -0.4906    0.2619 C   0  0  1  0  0  0  0  0  0  0  0  0
    1.0367   -1.7953   -0.0857 C   0  0  0  0  0  0  0  0  0  0  0  0
   -0.2031   -1.9291    0.7901 C   0  0  0  0  0  0  0  0  0  0  0  0
   -1.1919   -0.7607    0.5848 C   0  0  1  0  0  0  0  0  0  0  0  0
   -1.7691   -0.2849    1.8965 C   0  0  0  0  0  0  0  0  0  0  0  0
   -3.0343    0.0812    1.7360 C   0  0  0  0  0  0  0  0  0  0  0  0
   -3.4401   -0.0937    0.3006 C   0  0  1  0  0  0  0  0  0  0  0  0
   -4.9266   -0.5020    0.1901 C   0  0  0  0  0  0  0  0  0  0  0  0
   -5.3734   -0.5559   -1.1380 O   0  0  0  0  0  0  0  0  0  0  0  0
   -3.0889    1.1903   -0.5040 C   0  0  0  0  0  0  0  0  0  0  0  0
   -1.6166    1.6397   -0.2881 C   0  0  0  0  0  0  0  0  0  0  0  0
   -0.6080    0.4365   -0.2525 C   0  0  1  0  0  0  0  0  0  0  0  0
   -2.4803   -1.2089   -0.1287 C   0  0  0  0  0  0  0  0  0  0  0  0
    4.2302    0.3214    1.3722 H   0  0  0  0  0  0  0  0  0  0  0  0
    5.1622    0.6116   -0.1390 H   0  0  0  0  0  0  0  0  0  0  0  0
    3.7607    1.6473    0.2396 H   0  0  0  0  0  0  0  0  0  0  0  0
    5.0060   -1.6402   -0.8597 H   0  0  0  0  0  0  0  0  0  0  0  0
    4.0171   -2.1931    0.5340 H   0  0  0  0  0  0  0  0  0  0  0  0
    3.4664   -2.4696   -1.1760 H   0  0  0  0  0  0  0  0  0  0  0  0
    3.6366   -0.3225   -2.6716 H   0  0  0  0  0  0  0  0  0  0  0  0
    1.5844    2.4270   -3.6644 H   0  0  0  0  0  0  0  0  0  0  0  0
    0.4644    2.6249    1.3030 H   0  0  0  0  0  0  0  0  0  0  0  0
    0.5426    1.0933    2.2564 H   0  0  0  0  0  0  0  0  0  0  0  0
    2.0269    1.8747    1.6590 H   0  0  0  0  0  0  0  0  0  0  0  0
    2.0444   -0.6024    1.3472 H   0  0  0  0  0  0  0  0  0  0  0  0
    1.6456   -2.6885    0.1340 H   0  0  0  0  0  0  0  0  0  0  0  0
    0.7738   -1.8331   -1.1609 H   0  0  0  0  0  0  0  0  0  0  0  0
    0.1373   -1.9618    1.8469 H   0  0  0  0  0  0  0  0  0  0  0  0
   -0.6869   -2.9055    0.5919 H   0  0  0  0  0  0  0  0  0  0  0  0
   -1.2471   -0.2634    2.8466 H   0  0  0  0  0  0  0  0  0  0  0  0
   -3.6762    0.4491    2.5352 H   0  0  0  0  0  0  0  0  0  0  0  0
   -5.5445    0.2367    0.7334 H   0  0  0  0  0  0  0  0  0  0  0  0
   -5.0840   -1.4879    0.6776 H   0  0  0  0  0  0  0  0  0  0  0  0
   -4.7588   -1.1690   -1.6360 H   0  0  0  0  0  0  0  0  0  0  0  0
   -3.7685    2.0135   -0.1996 H   0  0  0  0  0  0  0  0  0  0  0  0
   -3.2485    1.0068   -1.5835 H   0  0  0  0  0  0  0  0  0  0  0  0
   -1.5982    2.1963    0.6661 H   0  0  0  0  0  0  0  0  0  0  0  0
   -1.3397    2.3477   -1.0979 H   0  0  0  0  0  0  0  0  0  0  0  0
   -0.5749    0.0767   -1.3075 H   0  0  0  0  0  0  0  0  0  0  0  0
   -2.3707   -1.2877   -1.2343 H   0  0  0  0  0  0  0  0  0  0  0  0
   -2.8337   -2.1905    0.2565 H   0  0  0  0  0  0  0  0  0  0  0  0
  1  2  1  0
  2  3  1  0
  2  4  1  0
  4  5  2  0
  5  6  1  0
  5  7  1  0
  7  8  2  0
  7  9  1  0
  9 10  1  1
  9 11  1  0
 11 12  1  0
 12 13  1  0
 14 13  1  1
 14 15  1  0
 15 16  2  0
 16 17  1  0
 17 18  1  1
 18 19  1  0
 17 20  1  0
 20 21  1  0
 21 22  1  0
 17 23  1  0
 11  2  1  0
 22 14  1  0
 22  9  1  0
 23 14  1  0
  1 24  1  0
  1 25  1  0
  1 26  1  0
  3 27  1  0
  3 28  1  0
  3 29  1  0
  4 30  1  0
  6 31  1  0
 10 32  1  0
 10 33  1  0
 10 34  1  0
 11 35  1  1
 12 36  1  0
 12 37  1  0
 13 38  1  0
 13 39  1  0
 15 40  1  0
 16 41  1  0
 18 42  1  0
 18 43  1  0
 19 44  1  0
 20 45  1  0
 20 46  1  0
 21 47  1  0
 21 48  1  0
 22 49  1  6
 23 50  1  0
 23 51  1  0
M  END

     RDKit          3D

 51 54  0  0  0  0  0  0  0  0999 V2000
    5.2152   -0.0101    0.3963 C   0  0  0  0  0  0  0  0  0  0  0  0
    3.7217    0.1364    0.0878 C   0  0  2  0  0  0  0  0  0  0  0  0
    3.3148   -0.6584   -1.1221 C   0  0  0  0  0  0  0  0  0  0  0  0
    2.0837   -1.1367   -0.9571 C   0  0  0  0  0  0  0  0  0  0  0  0
    1.5264   -0.6831    0.3688 C   0  0  2  0  0  0  0  0  0  0  0  0
    0.6286   -1.7508    1.0474 C   0  0  0  0  0  0  0  0  0  0  0  0
   -0.8167   -1.2943    1.2421 C   0  0  0  0  0  0  0  0  0  0  0  0
   -1.3904   -0.6543   -0.0454 C   0  0  1  0  0  0  0  0  0  0  0  0
   -3.0004   -0.5707   -0.0778 C   0  0  2  0  0  0  0  0  0  0  0  0
   -3.6575   -0.8867    1.2941 C   0  0  0  0  0  0  0  0  0  0  0  0
   -3.5306   -1.6012   -1.1160 C   0  0  0  0  0  0  0  0  0  0  0  0
   -4.9358   -1.6022   -1.1882 O   0  0  0  0  0  0  0  0  0  0  0  0
   -3.5323    0.8029   -0.4645 C   0  0  0  0  0  0  0  0  0  0  0  0
   -2.8586    1.9262   -0.2421 C   0  0  0  0  0  0  0  0  0  0  0  0
   -3.5092    3.1521   -0.3635 O   0  0  0  0  0  0  0  0  0  0  0  0
   -1.4355    1.8661    0.0845 C   0  0  0  0  0  0  0  0  0  0  0  0
   -0.8985    2.8443    0.6718 O   0  0  0  0  0  0  0  0  0  0  0  0
   -0.6222    0.6816   -0.4129 C   0  0  2  0  0  0  0  0  0  0  0  0
   -0.5796    0.7919   -1.9654 C   0  0  0  0  0  0  0  0  0  0  0  0
    0.8437    0.7260    0.2157 C   0  0  2  0  0  0  0  0  0  0  0  0
    1.8083    1.7588   -0.4852 C   0  0  0  0  0  0  0  0  0  0  0  0
    3.2942    1.6208   -0.0580 C   0  0  0  0  0  0  0  0  0  0  0  0
    2.8339   -0.4914    1.1580 C   0  0  0  0  0  0  0  0  0  0  0  0
    5.4906   -1.0815    0.4947 H   0  0  0  0  0  0  0  0  0  0  0  0
    5.4654    0.5091    1.3451 H   0  0  0  0  0  0  0  0  0  0  0  0
    5.8174    0.4335   -0.4233 H   0  0  0  0  0  0  0  0  0  0  0  0
    3.9148   -0.8096   -2.0139 H   0  0  0  0  0  0  0  0  0  0  0  0
    1.5628   -1.7394   -1.6929 H   0  0  0  0  0  0  0  0  0  0  0  0
    1.0208   -2.0233    2.0528 H   0  0  0  0  0  0  0  0  0  0  0  0
    0.6313   -2.6913    0.4522 H   0  0  0  0  0  0  0  0  0  0  0  0
   -0.8736   -0.5762    2.0905 H   0  0  0  0  0  0  0  0  0  0  0  0
   -1.3850   -2.2059    1.5157 H   0  0  0  0  0  0  0  0  0  0  0  0
   -1.0961   -1.3871   -0.8308 H   0  0  0  0  0  0  0  0  0  0  0  0
   -3.5587   -1.9590    1.5622 H   0  0  0  0  0  0  0  0  0  0  0  0
   -4.7489   -0.6765    1.2775 H   0  0  0  0  0  0  0  0  0  0  0  0
   -3.2174   -0.2615    2.0988 H   0  0  0  0  0  0  0  0  0  0  0  0
   -3.1372   -1.3432   -2.1221 H   0  0  0  0  0  0  0  0  0  0  0  0
   -3.1490   -2.6230   -0.8734 H   0  0  0  0  0  0  0  0  0  0  0  0
   -5.2565   -2.3675   -0.6460 H   0  0  0  0  0  0  0  0  0  0  0  0
   -4.5781    0.8923   -0.7372 H   0  0  0  0  0  0  0  0  0  0  0  0
   -3.0213    4.0282   -0.2221 H   0  0  0  0  0  0  0  0  0  0  0  0
    0.1351    0.0670   -2.3993 H   0  0  0  0  0  0  0  0  0  0  0  0
   -1.5720    0.5804   -2.4142 H   0  0  0  0  0  0  0  0  0  0  0  0
   -0.3042    1.8178   -2.2922 H   0  0  0  0  0  0  0  0  0  0  0  0
    0.7294    1.0920    1.2619 H   0  0  0  0  0  0  0  0  0  0  0  0
    1.8065    1.6161   -1.5832 H   0  0  0  0  0  0  0  0  0  0  0  0
    1.4703    2.7979   -0.2967 H   0  0  0  0  0  0  0  0  0  0  0  0
    3.9392    2.1231   -0.8129 H   0  0  0  0  0  0  0  0  0  0  0  0
    3.4439    2.1497    0.9091 H   0  0  0  0  0  0  0  0  0  0  0  0
    3.2526   -1.4744    1.4783 H   0  0  0  0  0  0  0  0  0  0  0  0
    2.7147    0.1451    2.0628 H   0  0  0  0  0  0  0  0  0  0  0  0
  2  1  1  1
  2  3  1  0
  3  4  2  0
  4  5  1  0
  5  6  1  1
  6  7  1  0
  7  8  1  0
  8  9  1  0
  9 10  1  1
  9 11  1  0
 11 12  1  0
  9 13  1  0
 13 14  2  0
 14 15  1  0
 14 16  1  0
 16 17  2  0
 16 18  1  0
 18 19  1  6
 18 20  1  0
 20 21  1  0
 21 22  1  0
  5 23  1  0
 22  2  1  0
 23  2  1  0
 20  5  1  0
 18  8  1  0
  1 24  1  0
  1 25  1  0
  1 26  1  0
  3 27  1  0
  4 28  1  0
  6 29  1  0
  6 30  1  0
  7 31  1  0
  7 32  1  0
  8 33  1  6
 10 34  1  0
 10 35  1  0
 10 36  1  0
 11 37  1  0
 11 38  1  0
 12 39  1  0
 13 40  1  0
 15 41  1  0
 19 42  1  0
 19 43  1  0
 19 44  1  0
 20 45  1  1
 21 46  1  0
 21 47  1  0
 22 48  1  0
 22 49  1  0
 23 50  1  0
 23 51  1  0
M  END
